PSSE/Case Creation/collection3wt.raw
@! IC,SBASE,REV,XFRRAT,NXFRAT,BASFRQ
0, 100, 34, 0, 1, 60
GENERATED BY PSSE WRITER DEVELOPED AT
M .A MORTENSON COMPANY BY AHMAD ABDULLAH AND CURTIS ROE
GENERAL, THRSHZ=0.0001, PQBRAK=0.7, BLOWUP=5.0
GAUSS, ITMX=100, ACCP=1.6, ACCQ=1.6, ACCM=1.0, TOL=0.0001
NEWTON, ITMXN=20, ACCN=1.0, TOLN=0.1, VCTOLQ=0.1, VCTOLV=0.00001, DVLIM=0.99, NDVFCT=0.99
ADJUST, ADJTHR=0.005, ACCTAP=1.0, TAPLIM=0.05, SWVBND=100.0, MXTPSS=99, MXSWIM=10
TYSL, ITMXTY=20, ACCTY=1.0, TOLTY=0.00001
RATING, 1, "RATE1 ", "RATING SET 1                    "
RATING, 2, "RATE2 ", "RATING SET 2                    "
RATING, 3, "RATE3 ", "RATING SET 3                    "
RATING, 4, "RATE4 ", "RATING SET 4                    "
RATING, 5, "RATE5 ", "RATING SET 5                    "
RATING, 6, "RATE6 ", "RATING SET 6                    "
RATING, 7, "RATE7 ", "RATING SET 7                    "
RATING, 8, "RATE8 ", "RATING SET 8                    "
RATING, 9, "RATE9 ", "RATING SET 9                    "
RATING,10, "RATE10", "RATING SET 10                   "
RATING,11, "RATE11", "RATING SET 11                   "
RATING,12, "RATE12", "RATING SET 12                   "
0 / END OF SYSTEM-WIDE DATA, BEGIN BUS DATA
@! I,'NAME        ',BASKV,IDE,AREA,ZONE,OWNER,VM,VA,NVHI,NVLO,EVHI,EVLO
301001,'JB11-1',34.5,1,1,1,1,1.0,0.0,1.1,0.9,1.1,0.9
301002,'JB11-2',34.5,1,1,1,1,1.0,0.0,1.1,0.9,1.1,0.9
301003,'JB11-3',34.5,1,1,1,1,1.0,0.0,1.1,0.9,1.1,0.9
301004,'JB11-4',34.5,1,1,1,1,1.0,0.0,1.1,0.9,1.1,0.9
101005,'WTT-11-01_42',34.5,1,1,1,1,1.0,0.0,1.1,0.9,1.1,0.9
201005,'WTT-11-01_42g',0.7,2,1,1,1,1.0,0.0,1.1,0.9,1.1,0.9
401005,'WTT-11-01_42p',34.5,1,1,1,1,1.0,0.0,1.1,0.9,1.1,0.9
101006,'WTT-11-02_42',34.5,1,1,1,1,1.0,0.0,1.1,0.9,1.1,0.9
201006,'WTT-11-02_42g',0.7,2,1,1,1,1.0,0.0,1.1,0.9,1.1,0.9
401006,'WTT-11-02_42p',34.5,1,1,1,1,1.0,0.0,1.1,0.9,1.1,0.9
101007,'WTT-11-03_42',34.5,1,1,1,1,1.0,0.0,1.1,0.9,1.1,0.9
201007,'WTT-11-03_42g',0.7,2,1,1,1,1.0,0.0,1.1,0.9,1.1,0.9
401007,'WTT-11-03_42p',34.5,1,1,1,1,1.0,0.0,1.1,0.9,1.1,0.9
101008,'WTT-11-04_42',34.5,1,1,1,1,1.0,0.0,1.1,0.9,1.1,0.9
201008,'WTT-11-04_42g',0.7,2,1,1,1,1.0,0.0,1.1,0.9,1.1,0.9
401008,'WTT-11-04_42p',34.5,1,1,1,1,1.0,0.0,1.1,0.9,1.1,0.9
101009,'WTT-11-05_42',34.5,1,1,1,1,1.0,0.0,1.1,0.9,1.1,0.9
201009,'WTT-11-05_42g',0.7,2,1,1,1,1.0,0.0,1.1,0.9,1.1,0.9
401009,'WTT-11-05_42p',34.5,1,1,1,1,1.0,0.0,1.1,0.9,1.1,0.9
101010,'WTT-11-06_42',34.5,1,1,1,1,1.0,0.0,1.1,0.9,1.1,0.9
201010,'WTT-11-06_42g',0.7,2,1,1,1,1.0,0.0,1.1,0.9,1.1,0.9
401010,'WTT-11-06_42p',34.5,1,1,1,1,1.0,0.0,1.1,0.9,1.1,0.9
302011,'JB12-1',34.5,1,1,1,1,1.0,0.0,1.1,0.9,1.1,0.9
302012,'JB12-2',34.5,1,1,1,1,1.0,0.0,1.1,0.9,1.1,0.9
302013,'JB12-3',34.5,1,1,1,1,1.0,0.0,1.1,0.9,1.1,0.9
302014,'JB12-4',34.5,1,1,1,1,1.0,0.0,1.1,0.9,1.1,0.9
102015,'WTT-12-01_42',34.5,1,1,1,1,1.0,0.0,1.1,0.9,1.1,0.9
202015,'WTT-12-01_42g',0.7,2,1,1,1,1.0,0.0,1.1,0.9,1.1,0.9
402015,'WTT-12-01_42p',34.5,1,1,1,1,1.0,0.0,1.1,0.9,1.1,0.9
102016,'WTT-12-02_42',34.5,1,1,1,1,1.0,0.0,1.1,0.9,1.1,0.9
202016,'WTT-12-02_42g',0.7,2,1,1,1,1.0,0.0,1.1,0.9,1.1,0.9
402016,'WTT-12-02_42p',34.5,1,1,1,1,1.0,0.0,1.1,0.9,1.1,0.9
102017,'WTT-12-03_42',34.5,1,1,1,1,1.0,0.0,1.1,0.9,1.1,0.9
202017,'WTT-12-03_42g',0.7,2,1,1,1,1.0,0.0,1.1,0.9,1.1,0.9
402017,'WTT-12-03_42p',34.5,1,1,1,1,1.0,0.0,1.1,0.9,1.1,0.9
102018,'WTT-12-04_42',34.5,1,1,1,1,1.0,0.0,1.1,0.9,1.1,0.9
202018,'WTT-12-04_42g',0.7,2,1,1,1,1.0,0.0,1.1,0.9,1.1,0.9
402018,'WTT-12-04_42p',34.5,1,1,1,1,1.0,0.0,1.1,0.9,1.1,0.9
102019,'WTT-12-05_42',34.5,1,1,1,1,1.0,0.0,1.1,0.9,1.1,0.9
202019,'WTT-12-05_42g',0.7,2,1,1,1,1.0,0.0,1.1,0.9,1.1,0.9
402019,'WTT-12-05_42p',34.5,1,1,1,1,1.0,0.0,1.1,0.9,1.1,0.9
102020,'WTT-12-06_42',34.5,1,1,1,1,1.0,0.0,1.1,0.9,1.1,0.9
202020,'WTT-12-06_42g',0.7,2,1,1,1,1.0,0.0,1.1,0.9,1.1,0.9
402020,'WTT-12-06_42p',34.5,1,1,1,1,1.0,0.0,1.1,0.9,1.1,0.9
303021,'JB13-1',34.5,1,1,1,1,1.0,0.0,1.1,0.9,1.1,0.9
303022,'JB13-2',34.5,1,1,1,1,1.0,0.0,1.1,0.9,1.1,0.9
303023,'JB13-3',34.5,1,1,1,1,1.0,0.0,1.1,0.9,1.1,0.9
103024,'WTT-13-01_42',34.5,1,1,1,1,1.0,0.0,1.1,0.9,1.1,0.9
203024,'WTT-13-01_42g',0.7,2,1,1,1,1.0,0.0,1.1,0.9,1.1,0.9
403024,'WTT-13-01_42p',34.5,1,1,1,1,1.0,0.0,1.1,0.9,1.1,0.9
103025,'WTT-13-02_42',34.5,1,1,1,1,1.0,0.0,1.1,0.9,1.1,0.9
203025,'WTT-13-02_42g',0.7,2,1,1,1,1.0,0.0,1.1,0.9,1.1,0.9
403025,'WTT-13-02_42p',34.5,1,1,1,1,1.0,0.0,1.1,0.9,1.1,0.9
103026,'WTT-13-03_42',34.5,1,1,1,1,1.0,0.0,1.1,0.9,1.1,0.9
203026,'WTT-13-03_42g',0.7,2,1,1,1,1.0,0.0,1.1,0.9,1.1,0.9
403026,'WTT-13-03_42p',34.5,1,1,1,1,1.0,0.0,1.1,0.9,1.1,0.9
103027,'WTT-13-04_42',34.5,1,1,1,1,1.0,0.0,1.1,0.9,1.1,0.9
203027,'WTT-13-04_42g',0.7,2,1,1,1,1.0,0.0,1.1,0.9,1.1,0.9
403027,'WTT-13-04_42p',34.5,1,1,1,1,1.0,0.0,1.1,0.9,1.1,0.9
103028,'WTT-13-05_42',34.5,1,1,1,1,1.0,0.0,1.1,0.9,1.1,0.9
203028,'WTT-13-05_42g',0.7,2,1,1,1,1.0,0.0,1.1,0.9,1.1,0.9
403028,'WTT-13-05_42p',34.5,1,1,1,1,1.0,0.0,1.1,0.9,1.1,0.9
103029,'WTT-13-06_42',34.5,1,1,1,1,1.0,0.0,1.1,0.9,1.1,0.9
203029,'WTT-13-06_42g',0.7,2,1,1,1,1.0,0.0,1.1,0.9,1.1,0.9
403029,'WTT-13-06_42p',34.5,1,1,1,1,1.0,0.0,1.1,0.9,1.1,0.9
304030,'JB14-1',34.5,1,1,1,1,1.0,0.0,1.1,0.9,1.1,0.9
304031,'JB14-2',34.5,1,1,1,1,1.0,0.0,1.1,0.9,1.1,0.9
304032,'JB14-3',34.5,1,1,1,1,1.0,0.0,1.1,0.9,1.1,0.9
104033,'WTT-14-01_42',34.5,1,1,1,1,1.0,0.0,1.1,0.9,1.1,0.9
204033,'WTT-14-01_42g',0.7,2,1,1,1,1.0,0.0,1.1,0.9,1.1,0.9
404033,'WTT-14-01_42p',34.5,1,1,1,1,1.0,0.0,1.1,0.9,1.1,0.9
104034,'WTT-14-02_42',34.5,1,1,1,1,1.0,0.0,1.1,0.9,1.1,0.9
204034,'WTT-14-02_42g',0.7,2,1,1,1,1.0,0.0,1.1,0.9,1.1,0.9
404034,'WTT-14-02_42p',34.5,1,1,1,1,1.0,0.0,1.1,0.9,1.1,0.9
104035,'WTT-14-03_42',34.5,1,1,1,1,1.0,0.0,1.1,0.9,1.1,0.9
204035,'WTT-14-03_42g',0.7,2,1,1,1,1.0,0.0,1.1,0.9,1.1,0.9
404035,'WTT-14-03_42p',34.5,1,1,1,1,1.0,0.0,1.1,0.9,1.1,0.9
104036,'WTT-14-04_42',34.5,1,1,1,1,1.0,0.0,1.1,0.9,1.1,0.9
204036,'WTT-14-04_42g',0.7,2,1,1,1,1.0,0.0,1.1,0.9,1.1,0.9
404036,'WTT-14-04_42p',34.5,1,1,1,1,1.0,0.0,1.1,0.9,1.1,0.9
104037,'WTT-14-05_42',34.5,1,1,1,1,1.0,0.0,1.1,0.9,1.1,0.9
204037,'WTT-14-05_42g',0.7,2,1,1,1,1.0,0.0,1.1,0.9,1.1,0.9
404037,'WTT-14-05_42p',34.5,1,1,1,1,1.0,0.0,1.1,0.9,1.1,0.9
104038,'WTT-14-06_42',34.5,1,1,1,1,1.0,0.0,1.1,0.9,1.1,0.9
204038,'WTT-14-06_42g',0.7,2,1,1,1,1.0,0.0,1.1,0.9,1.1,0.9
404038,'WTT-14-06_42p',34.5,1,1,1,1,1.0,0.0,1.1,0.9,1.1,0.9
301039,'JB21-1',34.5,1,1,1,1,1.0,0.0,1.1,0.9,1.1,0.9
301040,'JB21-2',34.5,1,1,1,1,1.0,0.0,1.1,0.9,1.1,0.9
301041,'JB21-3',34.5,1,1,1,1,1.0,0.0,1.1,0.9,1.1,0.9
101042,'WTT-21-01_42',34.5,1,1,1,1,1.0,0.0,1.1,0.9,1.1,0.9
201042,'WTT-21-01_42g',0.7,2,1,1,1,1.0,0.0,1.1,0.9,1.1,0.9
401042,'WTT-21-01_42p',34.5,1,1,1,1,1.0,0.0,1.1,0.9,1.1,0.9
101043,'WTT-21-02_42',34.5,1,1,1,1,1.0,0.0,1.1,0.9,1.1,0.9
201043,'WTT-21-02_42g',0.7,2,1,1,1,1.0,0.0,1.1,0.9,1.1,0.9
401043,'WTT-21-02_42p',34.5,1,1,1,1,1.0,0.0,1.1,0.9,1.1,0.9
302044,'JB22-1',34.5,1,1,1,1,1.0,0.0,1.1,0.9,1.1,0.9
302045,'JB22-2',34.5,1,1,1,1,1.0,0.0,1.1,0.9,1.1,0.9
302046,'JB22-3',34.5,1,1,1,1,1.0,0.0,1.1,0.9,1.1,0.9
102047,'WTT-22-01_42',34.5,1,1,1,1,1.0,0.0,1.1,0.9,1.1,0.9
202047,'WTT-22-01_42g',0.7,2,1,1,1,1.0,0.0,1.1,0.9,1.1,0.9
402047,'WTT-22-01_42p',34.5,1,1,1,1,1.0,0.0,1.1,0.9,1.1,0.9
102048,'WTT-22-02_42',34.5,1,1,1,1,1.0,0.0,1.1,0.9,1.1,0.9
202048,'WTT-22-02_42g',0.7,2,1,1,1,1.0,0.0,1.1,0.9,1.1,0.9
402048,'WTT-22-02_42p',34.5,1,1,1,1,1.0,0.0,1.1,0.9,1.1,0.9
102049,'WTT-22-03_42',34.5,1,1,1,1,1.0,0.0,1.1,0.9,1.1,0.9
202049,'WTT-22-03_42g',0.7,2,1,1,1,1.0,0.0,1.1,0.9,1.1,0.9
402049,'WTT-22-03_42p',34.5,1,1,1,1,1.0,0.0,1.1,0.9,1.1,0.9
102050,'WTT-22-04_42',34.5,1,1,1,1,1.0,0.0,1.1,0.9,1.1,0.9
202050,'WTT-22-04_42g',0.7,2,1,1,1,1.0,0.0,1.1,0.9,1.1,0.9
402050,'WTT-22-04_42p',34.5,1,1,1,1,1.0,0.0,1.1,0.9,1.1,0.9
102051,'WTT-22-05_42',34.5,1,1,1,1,1.0,0.0,1.1,0.9,1.1,0.9
202051,'WTT-22-05_42g',0.7,2,1,1,1,1.0,0.0,1.1,0.9,1.1,0.9
402051,'WTT-22-05_42p',34.5,1,1,1,1,1.0,0.0,1.1,0.9,1.1,0.9
102052,'WTT-22-06_42',34.5,1,1,1,1,1.0,0.0,1.1,0.9,1.1,0.9
202052,'WTT-22-06_42g',0.7,2,1,1,1,1.0,0.0,1.1,0.9,1.1,0.9
402052,'WTT-22-06_42p',34.5,1,1,1,1,1.0,0.0,1.1,0.9,1.1,0.9
303053,'JB23-1',34.5,1,1,1,1,1.0,0.0,1.1,0.9,1.1,0.9
303054,'JB23-2',34.5,1,1,1,1,1.0,0.0,1.1,0.9,1.1,0.9
303055,'JB23-3',34.5,1,1,1,1,1.0,0.0,1.1,0.9,1.1,0.9
103056,'WTT-23-01_42',34.5,1,1,1,1,1.0,0.0,1.1,0.9,1.1,0.9
203056,'WTT-23-01_42g',0.7,2,1,1,1,1.0,0.0,1.1,0.9,1.1,0.9
403056,'WTT-23-01_42p',34.5,1,1,1,1,1.0,0.0,1.1,0.9,1.1,0.9
103057,'WTT-23-02_42',34.5,1,1,1,1,1.0,0.0,1.1,0.9,1.1,0.9
203057,'WTT-23-02_42g',0.7,2,1,1,1,1.0,0.0,1.1,0.9,1.1,0.9
403057,'WTT-23-02_42p',34.5,1,1,1,1,1.0,0.0,1.1,0.9,1.1,0.9
103058,'WTT-23-03_42',34.5,1,1,1,1,1.0,0.0,1.1,0.9,1.1,0.9
203058,'WTT-23-03_42g',0.7,2,1,1,1,1.0,0.0,1.1,0.9,1.1,0.9
403058,'WTT-23-03_42p',34.5,1,1,1,1,1.0,0.0,1.1,0.9,1.1,0.9
103059,'WTT-23-04_42',34.5,1,1,1,1,1.0,0.0,1.1,0.9,1.1,0.9
203059,'WTT-23-04_42g',0.7,2,1,1,1,1.0,0.0,1.1,0.9,1.1,0.9
403059,'WTT-23-04_42p',34.5,1,1,1,1,1.0,0.0,1.1,0.9,1.1,0.9
103060,'WTT-23-05_42',34.5,1,1,1,1,1.0,0.0,1.1,0.9,1.1,0.9
203060,'WTT-23-05_42g',0.7,2,1,1,1,1.0,0.0,1.1,0.9,1.1,0.9
403060,'WTT-23-05_42p',34.5,1,1,1,1,1.0,0.0,1.1,0.9,1.1,0.9
103061,'WTT-23-06_42',34.5,1,1,1,1,1.0,0.0,1.1,0.9,1.1,0.9
203061,'WTT-23-06_42g',0.7,2,1,1,1,1.0,0.0,1.1,0.9,1.1,0.9
403061,'WTT-23-06_42p',34.5,1,1,1,1,1.0,0.0,1.1,0.9,1.1,0.9
304062,'JB24-1',34.5,1,1,1,1,1.0,0.0,1.1,0.9,1.1,0.9
104063,'WTT-24-01_20',34.5,1,1,1,1,1.0,0.0,1.1,0.9,1.1,0.9
204063,'WTT-24-01_20g',0.7,2,1,1,1,1.0,0.0,1.1,0.9,1.1,0.9
404063,'WTT-24-01_20p',34.5,1,1,1,1,1.0,0.0,1.1,0.9,1.1,0.9
104064,'WTT-24-02_20',34.5,1,1,1,1,1.0,0.0,1.1,0.9,1.1,0.9
204064,'WTT-24-02_20g',0.7,2,1,1,1,1.0,0.0,1.1,0.9,1.1,0.9
404064,'WTT-24-02_20p',34.5,1,1,1,1,1.0,0.0,1.1,0.9,1.1,0.9
104065,'WTT-24-03_20',34.5,1,1,1,1,1.0,0.0,1.1,0.9,1.1,0.9
204065,'WTT-24-03_20g',0.7,2,1,1,1,1.0,0.0,1.1,0.9,1.1,0.9
404065,'WTT-24-03_20p',34.5,1,1,1,1,1.0,0.0,1.1,0.9,1.1,0.9
104066,'WTT-24-04_42',34.5,1,1,1,1,1.0,0.0,1.1,0.9,1.1,0.9
204066,'WTT-24-04_42g',0.7,2,1,1,1,1.0,0.0,1.1,0.9,1.1,0.9
404066,'WTT-24-04_42p',34.5,1,1,1,1,1.0,0.0,1.1,0.9,1.1,0.9
104067,'WTT-24-05_42',34.5,1,1,1,1,1.0,0.0,1.1,0.9,1.1,0.9
204067,'WTT-24-05_42g',0.7,2,1,1,1,1.0,0.0,1.1,0.9,1.1,0.9
404067,'WTT-24-05_42p',34.5,1,1,1,1,1.0,0.0,1.1,0.9,1.1,0.9
104068,'WTT-24-06_42',34.5,1,1,1,1,1.0,0.0,1.1,0.9,1.1,0.9
204068,'WTT-24-06_42g',0.7,2,1,1,1,1.0,0.0,1.1,0.9,1.1,0.9
404068,'WTT-24-06_42p',34.5,1,1,1,1,1.0,0.0,1.1,0.9,1.1,0.9
305069,'JB25-1',34.5,1,1,1,1,1.0,0.0,1.1,0.9,1.1,0.9
305070,'JB25-2',34.5,1,1,1,1,1.0,0.0,1.1,0.9,1.1,0.9
305071,'JB25-3',34.5,1,1,1,1,1.0,0.0,1.1,0.9,1.1,0.9
305072,'JB25-4',34.5,1,1,1,1,1.0,0.0,1.1,0.9,1.1,0.9
105073,'WTT-25-01_42',34.5,1,1,1,1,1.0,0.0,1.1,0.9,1.1,0.9
205073,'WTT-25-01_42g',0.7,2,1,1,1,1.0,0.0,1.1,0.9,1.1,0.9
405073,'WTT-25-01_42p',34.5,1,1,1,1,1.0,0.0,1.1,0.9,1.1,0.9
105074,'WTT-25-02_42',34.5,1,1,1,1,1.0,0.0,1.1,0.9,1.1,0.9
205074,'WTT-25-02_42g',0.7,2,1,1,1,1.0,0.0,1.1,0.9,1.1,0.9
405074,'WTT-25-02_42p',34.5,1,1,1,1,1.0,0.0,1.1,0.9,1.1,0.9
105075,'WTT-25-03_42',34.5,1,1,1,1,1.0,0.0,1.1,0.9,1.1,0.9
205075,'WTT-25-03_42g',0.7,2,1,1,1,1.0,0.0,1.1,0.9,1.1,0.9
405075,'WTT-25-03_42p',34.5,1,1,1,1,1.0,0.0,1.1,0.9,1.1,0.9
105076,'WTT-25-04_42',34.5,1,1,1,1,1.0,0.0,1.1,0.9,1.1,0.9
205076,'WTT-25-04_42g',0.7,2,1,1,1,1.0,0.0,1.1,0.9,1.1,0.9
405076,'WTT-25-04_42p',34.5,1,1,1,1,1.0,0.0,1.1,0.9,1.1,0.9
105077,'WTT-25-05_42',34.5,1,1,1,1,1.0,0.0,1.1,0.9,1.1,0.9
205077,'WTT-25-05_42g',0.7,2,1,1,1,1.0,0.0,1.1,0.9,1.1,0.9
405077,'WTT-25-05_42p',34.5,1,1,1,1,1.0,0.0,1.1,0.9,1.1,0.9
105078,'WTT-25-06_42',34.5,1,1,1,1,1.0,0.0,1.1,0.9,1.1,0.9
205078,'WTT-25-06_42g',0.7,2,1,1,1,1.0,0.0,1.1,0.9,1.1,0.9
405078,'WTT-25-06_42p',34.5,1,1,1,1,1.0,0.0,1.1,0.9,1.1,0.9
301079,'JB31-1',34.5,1,1,1,1,1.0,0.0,1.1,0.9,1.1,0.9
301080,'JB31-2',34.5,1,1,1,1,1.0,0.0,1.1,0.9,1.1,0.9
301081,'JB31-3',34.5,1,1,1,1,1.0,0.0,1.1,0.9,1.1,0.9
101082,'WTT-31-01_42',34.5,1,1,1,1,1.0,0.0,1.1,0.9,1.1,0.9
201082,'WTT-31-01_42g',0.7,2,1,1,1,1.0,0.0,1.1,0.9,1.1,0.9
401082,'WTT-31-01_42p',34.5,1,1,1,1,1.0,0.0,1.1,0.9,1.1,0.9
101083,'WTT-31-02_42',34.5,1,1,1,1,1.0,0.0,1.1,0.9,1.1,0.9
201083,'WTT-31-02_42g',0.7,2,1,1,1,1.0,0.0,1.1,0.9,1.1,0.9
401083,'WTT-31-02_42p',34.5,1,1,1,1,1.0,0.0,1.1,0.9,1.1,0.9
101084,'WTT-31-03_42',34.5,1,1,1,1,1.0,0.0,1.1,0.9,1.1,0.9
201084,'WTT-31-03_42g',0.7,2,1,1,1,1.0,0.0,1.1,0.9,1.1,0.9
401084,'WTT-31-03_42p',34.5,1,1,1,1,1.0,0.0,1.1,0.9,1.1,0.9
101085,'WTT-31-04_42',34.5,1,1,1,1,1.0,0.0,1.1,0.9,1.1,0.9
201085,'WTT-31-04_42g',0.7,2,1,1,1,1.0,0.0,1.1,0.9,1.1,0.9
401085,'WTT-31-04_42p',34.5,1,1,1,1,1.0,0.0,1.1,0.9,1.1,0.9
101086,'WTT-31-05_42',34.5,1,1,1,1,1.0,0.0,1.1,0.9,1.1,0.9
201086,'WTT-31-05_42g',0.7,2,1,1,1,1.0,0.0,1.1,0.9,1.1,0.9
401086,'WTT-31-05_42p',34.5,1,1,1,1,1.0,0.0,1.1,0.9,1.1,0.9
101087,'WTT-31-06_42',34.5,1,1,1,1,1.0,0.0,1.1,0.9,1.1,0.9
201087,'WTT-31-06_42g',0.7,2,1,1,1,1.0,0.0,1.1,0.9,1.1,0.9
401087,'WTT-31-06_42p',34.5,1,1,1,1,1.0,0.0,1.1,0.9,1.1,0.9
302088,'JB32-1',34.5,1,1,1,1,1.0,0.0,1.1,0.9,1.1,0.9
...
0 / END OF BUS DATA, BEGIN LOAD DATA
@! I,'ID',STAT,AREA,ZONE,PL,QL,IP,IQ,YP,YQ,OWNER,SCALE,INTRPT,DGENP,DGENQ,DGENF
0 / END OF LOAD DATA, BEGIN FIXED SHUNT DATA
@! I,'ID',STATUS,GL,BL
1,'1',1,0,0.0000001
1,'2',1,0,-0.0000001
2,'1',1,0,0.0000001
2,'2',1,0,-0.0000001
3,'1',1,0,0.0000001
3,'2',1,0,-0.0000001
0 / END OF FIXED SHUNT DATA, BEGIN GENERATOR DATA
@! I,'ID',PG,QG,QT,QB,VS,IREG,MBASE,ZR,ZX,RT,XT,GTAP,STAT,RMPCT,PT,PB,O1,F1,O2,F2,O3,F3,O4,F4,WMOD,WPF,NREG
201005,'1',4.2,0,1.998,-1.49,1.0,0,5.15,0.0,2.3,0,0,1,1,100,4.2,0,1,1,0,1,0,1,0,1,0,1
201006,'1',4.2,0,1.998,-1.49,1.0,0,5.15,0.0,2.3,0,0,1,1,100,4.2,0,1,1,0,1,0,1,0,1,0,1
201007,'1',4.2,0,1.998,-1.49,1.0,0,5.15,0.0,2.3,0,0,1,1,100,4.2,0,1,1,0,1,0,1,0,1,0,1
201008,'1',4.2,0,1.998,-1.49,1.0,0,5.15,0.0,2.3,0,0,1,1,100,4.2,0,1,1,0,1,0,1,0,1,0,1
201009,'1',4.2,0,1.998,-1.49,1.0,0,5.15,0.0,2.3,0,0,1,1,100,4.2,0,1,1,0,1,0,1,0,1,0,1
201010,'1',4.2,0,1.998,-1.49,1.0,0,5.15,0.0,2.3,0,0,1,1,100,4.2,0,1,1,0,1,0,1,0,1,0,1
202015,'1',4.2,0,1.998,-1.49,1.0,0,5.15,0.0,2.3,0,0,1,1,100,4.2,0,1,1,0,1,0,1,0,1,0,1
202016,'1',4.2,0,1.998,-1.49,1.0,0,5.15,0.0,2.3,0,0,1,1,100,4.2,0,1,1,0,1,0,1,0,1,0,1
202017,'1',4.2,0,1.998,-1.49,1.0,0,5.15,0.0,2.3,0,0,1,1,100,4.2,0,1,1,0,1,0,1,0,1,0,1
202018,'1',4.2,0,1.998,-1.49,1.0,0,5.15,0.0,2.3,0,0,1,1,100,4.2,0,1,1,0,1,0,1,0,1,0,1
202019,'1',4.2,0,1.998,-1.49,1.0,0,5.15,0.0,2.3,0,0,1,1,100,4.2,0,1,1,0,1,0,1,0,1,0,1
202020,'1',4.2,0,1.998,-1.49,1.0,0,5.15,0.0,2.3,0,0,1,1,100,4.2,0,1,1,0,1,0,1,0,1,0,1
203024,'1',4.2,0,1.998,-1.49,1.0,0,5.15,0.0,2.3,0,0,1,1,100,4.2,0,1,1,0,1,0,1,0,1,0,1
203025,'1',4.2,0,1.998,-1.49,1.0,0,5.15,0.0,2.3,0,0,1,1,100,4.2,0,1,1,0,1,0,1,0,1,0,1
203026,'1',4.2,0,1.998,-1.49,1.0,0,5.15,0.0,2.3,0,0,1,1,100,4.2,0,1,1,0,1,0,1,0,1,0,1
203027,'1',4.2,0,1.998,-1.49,1.0,0,5.15,0.0,2.3,0,0,1,1,100,4.2,0,1,1,0,1,0,1,0,1,0,1
203028,'1',4.2,0,1.998,-1.49,1.0,0,5.15,0.0,2.3,0,0,1,1,100,4.2,0,1,1,0,1,0,1,0,1,0,1
203029,'1',4.2,0,1.998,-1.49,1.0,0,5.15,0.0,2.3,0,0,1,1,100,4.2,0,1,1,0,1,0,1,0,1,0,1
204033,'1',4.2,0,1.998,-1.49,1.0,0,5.15,0.0,2.3,0,0,1,1,100,4.2,0,1,1,0,1,0,1,0,1,0,1
204034,'1',4.2,0,1.998,-1.49,1.0,0,5.15,0.0,2.3,0,0,1,1,100,4.2,0,1,1,0,1,0,1,0,1,0,1
204035,'1',4.2,0,1.998,-1.49,1.0,0,5.15,0.0,2.3,0,0,1,1,100,4.2,0,1,1,0,1,0,1,0,1,0,1
204036,'1',4.2,0,1.998,-1.49,1.0,0,5.15,0.0,2.3,0,0,1,1,100,4.2,0,1,1,0,1,0,1,0,1,0,1
204037,'1',4.2,0,1.998,-1.49,1.0,0,5.15,0.0,2.3,0,0,1,1,100,4.2,0,1,1,0,1,0,1,0,1,0,1
204038,'1',4.2,0,1.998,-1.49,1.0,0,5.15,0.0,2.3,0,0,1,1,100,4.2,0,1,1,0,1,0,1,0,1,0,1
201042,'1',4.2,0,1.998,-1.49,1.0,0,5.15,0.0,2.3,0,0,1,1,100,4.2,0,1,1,0,1,0,1,0,1,0,1
201043,'1',4.2,0,1.998,-1.49,1.0,0,5.15,0.0,2.3,0,0,1,1,100,4.2,0,1,1,0,1,0,1,0,1,0,1
202047,'1',4.2,0,1.998,-1.49,1.0,0,5.15,0.0,2.3,0,0,1,1,100,4.2,0,1,1,0,1,0,1,0,1,0,1
202048,'1',4.2,0,1.998,-1.49,1.0,0,5.15,0.0,2.3,0,0,1,1,100,4.2,0,1,1,0,1,0,1,0,1,0,1
202049,'1',4.2,0,1.998,-1.49,1.0,0,5.15,0.0,2.3,0,0,1,1,100,4.2,0,1,1,0,1,0,1,0,1,0,1
202050,'1',4.2,0,1.998,-1.49,1.0,0,5.15,0.0,2.3,0,0,1,1,100,4.2,0,1,1,0,1,0,1,0,1,0,1
202051,'1',4.2,0,1.998,-1.49,1.0,0,5.15,0.0,2.3,0,0,1,1,100,4.2,0,1,1,0,1,0,1,0,1,0,1
202052,'1',4.2,0,1.998,-1.49,1.0,0,5.15,0.0,2.3,0,0,1,1,100,4.2,0,1,1,0,1,0,1,0,1,0,1
203056,'1',4.2,0,1.998,-1.49,1.0,0,5.15,0.0,2.3,0,0,1,1,100,4.2,0,1,1,0,1,0,1,0,1,0,1
203057,'1',4.2,0,1.998,-1.49,1.0,0,5.15,0.0,2.3,0,0,1,1,100,4.2,0,1,1,0,1,0,1,0,1,0,1
203058,'1',4.2,0,1.998,-1.49,1.0,0,5.15,0.0,2.3,0,0,1,1,100,4.2,0,1,1,0,1,0,1,0,1,0,1
203059,'1',4.2,0,1.998,-1.49,1.0,0,5.15,0.0,2.3,0,0,1,1,100,4.2,0,1,1,0,1,0,1,0,1,0,1
203060,'1',4.2,0,1.998,-1.49,1.0,0,5.15,0.0,2.3,0,0,1,1,100,4.2,0,1,1,0,1,0,1,0,1,0,1
203061,'1',4.2,0,1.998,-1.49,1.0,0,5.15,0.0,2.3,0,0,1,1,100,4.2,0,1,1,0,1,0,1,0,1,0,1
204063,'1',2.0,0,0.406,-0.583,1.0,0,2.08,0.0,3.282,0,0,1,1,100,2.0,0,1,1,0,1,0,1,0,1,0,1
204064,'1',2.0,0,0.406,-0.583,1.0,0,2.08,0.0,3.282,0,0,1,1,100,2.0,0,1,1,0,1,0,1,0,1,0,1
204065,'1',2.0,0,0.406,-0.583,1.0,0,2.08,0.0,3.282,0,0,1,1,100,2.0,0,1,1,0,1,0,1,0,1,0,1
204066,'1',4.2,0,1.998,-1.49,1.0,0,5.15,0.0,2.3,0,0,1,1,100,4.2,0,1,1,0,1,0,1,0,1,0,1
204067,'1',4.2,0,1.998,-1.49,1.0,0,5.15,0.0,2.3,0,0,1,1,100,4.2,0,1,1,0,1,0,1,0,1,0,1
204068,'1',4.2,0,1.998,-1.49,1.0,0,5.15,0.0,2.3,0,0,1,1,100,4.2,0,1,1,0,1,0,1,0,1,0,1
205073,'1',4.2,0,1.998,-1.49,1.0,0,5.15,0.0,2.3,0,0,1,1,100,4.2,0,1,1,0,1,0,1,0,1,0,1
205074,'1',4.2,0,1.998,-1.49,1.0,0,5.15,0.0,2.3,0,0,1,1,100,4.2,0,1,1,0,1,0,1,0,1,0,1
205075,'1',4.2,0,1.998,-1.49,1.0,0,5.15,0.0,2.3,0,0,1,1,100,4.2,0,1,1,0,1,0,1,0,1,0,1
205076,'1',4.2,0,1.998,-1.49,1.0,0,5.15,0.0,2.3,0,0,1,1,100,4.2,0,1,1,0,1,0,1,0,1,0,1
205077,'1',4.2,0,1.998,-1.49,1.0,0,5.15,0.0,2.3,0,0,1,1,100,4.2,0,1,1,0,1,0,1,0,1,0,1
205078,'1',4.2,0,1.998,-1.49,1.0,0,5.15,0.0,2.3,0,0,1,1,100,4.2,0,1,1,0,1,0,1,0,1,0,1
201082,'1',4.2,0,1.998,-1.49,1.0,0,5.15,0.0,2.3,0,0,1,1,100,4.2,0,1,1,0,1,0,1,0,1,0,1
201083,'1',4.2,0,1.998,-1.49,1.0,0,5.15,0.0,2.3,0,0,1,1,100,4.2,0,1,1,0,1,0,1,0,1,0,1
201084,'1',4.2,0,1.998,-1.49,1.0,0,5.15,0.0,2.3,0,0,1,1,100,4.2,0,1,1,0,1,0,1,0,1,0,1
201085,'1',4.2,0,1.998,-1.49,1.0,0,5.15,0.0,2.3,0,0,1,1,100,4.2,0,1,1,0,1,0,1,0,1,0,1
201086,'1',4.2,0,1.998,-1.49,1.0,0,5.15,0.0,2.3,0,0,1,1,100,4.2,0,1,1,0,1,0,1,0,1,0,1
201087,'1',4.2,0,1.998,-1.49,1.0,0,5.15,0.0,2.3,0,0,1,1,100,4.2,0,1,1,0,1,0,1,0,1,0,1
202090,'1',4.2,0,1.998,-1.49,1.0,0,5.15,0.0,2.3,0,0,1,1,100,4.2,0,1,1,0,1,0,1,0,1,0,1
202091,'1',4.2,0,1.998,-1.49,1.0,0,5.15,0.0,2.3,0,0,1,1,100,4.2,0,1,1,0,1,0,1,0,1,0,1
202092,'1',4.2,0,1.998,-1.49,1.0,0,5.15,0.0,2.3,0,0,1,1,100,4.2,0,1,1,0,1,0,1,0,1,0,1
202093,'1',4.2,0,1.998,-1.49,1.0,0,5.15,0.0,2.3,0,0,1,1,100,4.2,0,1,1,0,1,0,1,0,1,0,1
202094,'1',4.2,0,1.998,-1.49,1.0,0,5.15,0.0,2.3,0,0,1,1,100,4.2,0,1,1,0,1,0,1,0,1,0,1
202095,'1',4.2,0,1.998,-1.49,1.0,0,5.15,0.0,2.3,0,0,1,1,100,4.2,0,1,1,0,1,0,1,0,1,0,1
203099,'1',4.2,0,1.998,-1.49,1.0,0,5.15,0.0,2.3,0,0,1,1,100,4.2,0,1,1,0,1,0,1,0,1,0,1
203100,'1',4.2,0,1.998,-1.49,1.0,0,5.15,0.0,2.3,0,0,1,1,100,4.2,0,1,1,0,1,0,1,0,1,0,1
203101,'1',4.2,0,1.998,-1.49,1.0,0,5.15,0.0,2.3,0,0,1,1,100,4.2,0,1,1,0,1,0,1,0,1,0,1
203102,'1',4.2,0,1.998,-1.49,1.0,0,5.15,0.0,2.3,0,0,1,1,100,4.2,0,1,1,0,1,0,1,0,1,0,1
203103,'1',4.2,0,1.998,-1.49,1.0,0,5.15,0.0,2.3,0,0,1,1,100,4.2,0,1,1,0,1,0,1,0,1,0,1
203104,'1',4.2,0,1.998,-1.49,1.0,0,5.15,0.0,2.3,0,0,1,1,100,4.2,0,1,1,0,1,0,1,0,1,0,1
204106,'1',2.0,0,0.406,-0.583,1.0,0,2.08,0.0,3.282,0,0,1,1,100,2.0,0,1,1,0,1,0,1,0,1,0,1
204107,'1',2.0,0,0.406,-0.583,1.0,0,2.08,0.0,3.282,0,0,1,1,100,2.0,0,1,1,0,1,0,1,0,1,0,1
204108,'1',2.0,0,0.406,-0.583,1.0,0,2.08,0.0,3.282,0,0,1,1,100,2.0,0,1,1,0,1,0,1,0,1,0,1
204109,'1',2.0,0,0.406,-0.583,1.0,0,2.08,0.0,3.282,0,0,1,1,100,2.0,0,1,1,0,1,0,1,0,1,0,1
204110,'1',2.0,0,0.406,-0.583,1.0,0,2.08,0.0,3.282,0,0,1,1,100,2.0,0,1,1,0,1,0,1,0,1,0,1
204111,'1',2.0,0,0.406,-0.583,1.0,0,2.08,0.0,3.282,0,0,1,1,100,2.0,0,1,1,0,1,0,1,0,1,0,1
204112,'1',2.0,0,0.406,-0.583,1.0,0,2.08,0.0,3.282,0,0,1,1,100,2.0,0,1,1,0,1,0,1,0,1,0,1
204113,'1',2.0,0,0.406,-0.583,1.0,0,2.08,0.0,3.282,0,0,1,1,100,2.0,0,1,1,0,1,0,1,0,1,0,1
204114,'1',2.0,0,0.406,-0.583,1.0,0,2.08,0.0,3.282,0,0,1,1,100,2.0,0,1,1,0,1,0,1,0,1,0,1
204115,'1',2.0,0,0.406,-0.583,1.0,0,2.08,0.0,3.282,0,0,1,1,100,2.0,0,1,1,0,1,0,1,0,1,0,1
204116,'1',2.0,0,0.406,-0.583,1.0,0,2.08,0.0,3.282,0,0,1,1,100,2.0,0,1,1,0,1,0,1,0,1,0,1
9,'1',1000,0,1000,1000,1.0,0,100,0.0001,0.0001,0,0,1,1,100,10000,0,1,1,0,1,0,1,0,1,0,1
0 / END OF GENERATOR DATA, BEGIN BRANCH DATA
@! I,J,'CKT',R,X,B,'NAME',RATE1,RATE2,RATE3,RATE4,RATE5,RATE6,RATE7,RATE8,RATE9,RATE10,RATE11,RATE12,GI,BI,GJ,BJ,STAT,MET,LEN,O1,F1,O2,F2,O3,F3,O4,F4
301001,1,'1',0.013753478203068208,0.02544393711695023,0.004407293060357915,/'UG Cable/',1250,1250,1250,0,0,0,0,0,0,0,0,0,0.0,0.0,0.0,0.0,1,1,8185.039,1,1.0,0,1.0,0,1.0,0,1.0
301002,301001,'1',0.013696450041362504,0.02533843401624635,0.00438901828827511,/'UG Cable/',1250,1250,1250,0,0,0,0,0,0,0,0,0,0.0,0.0,0.0,0.0,1,1,8151.1,1,1.0,0,1.0,0,1.0,0,1.0
301003,301002,'1',0.011324960127319516,0.020951177863057134,0.003629075981370988,/'UG Cable/',1250,1250,1250,0,0,0,0,0,0,0,0,0,0.0,0.0,0.0,0.0,1,1,6739.767,1,1.0,0,1.0,0,1.0,0,1.0
301004,301003,'1',0.013841725878043476,0.02560719450189646,0.004435572105358006,/'UG Cable/',1250,1250,1250,0,0,0,0,0,0,0,0,0,0.0,0.0,0.0,0.0,1,1,8237.558,1,1.0,0,1.0,0,1.0,0,1.0
101005,301004,'1',0.008522920236946079,0.01576740409716466,0.0027311642547647353,/'UG Cable/',1250,1250,1250,0,0,0,0,0,0,0,0,0,0.0,0.0,0.0,0.0,1,1,5072.203,1,1.0,0,1.0,0,1.0,0,1.0
101006,101005,'1',0.0030636167706523817,0.004779242137179007,6.021261573641823E-4,/'UG Cable/',1000,1000,1000,0,0,0,0,0,0,0,0,0,0.0,0.0,0.0,0.0,1,1,1458.588,1,1.0,0,1.0,0,1.0,0,1.0
101007,101006,'1',0.01828195016641022,0.02150817519349978,0.0023548385294998296,/'UG Cable/',750,750,750,0,0,0,0,0,0,0,0,0,0.0,0.0,0.0,0.0,1,1,6400.027,1,1.0,0,1.0,0,1.0,0,1.0
101008,101007,'1',0.005554988263560253,0.00487478577872831,4.238248041110637E-4,/'UG Cable/',500,500,500,0,0,0,0,0,0,0,0,0,0.0,0.0,0.0,0.0,1,1,1349.352,1,1.0,0,1.0,0,1.0,0,1.0
101009,101008,'1',0.014375631259885363,0.005897694940052221,3.220072734484347E-4,/'UG Cable/',4,4,4,0,0,0,0,0,0,0,0,0,0.0,0.0,0.0,0.0,1,1,1462.444,1,1.0,0,1.0,0,1.0,0,1.0
101010,101009,'1',0.029267535643326188,0.006296601622977494,2.42937858993173E-4,/'UG Cable/',1,1,1,0,0,0,0,0,0,0,0,0,0.0,0.0,0.0,0.0,1,1,1387.876,1,1.0,0,1.0,0,1.0,0,1.0
302011,1,'1',0.013681637141614921,0.025311029150164997,0.00438427145476453,/'UG Cable/',1250,1250,1250,0,0,0,0,0,0,0,0,0,0.0,0.0,0.0,0.0,1,1,8142.284,1,1.0,0,1.0,0,1.0,0,1.0
302012,302011,'1',0.013604922295618247,0.0251691097523129,0.0043596885867737,/'UG Cable/',1250,1250,1250,0,0,0,0,0,0,0,0,0,0.0,0.0,0.0,0.0,1,1,8096.63,1,1.0,0,1.0,0,1.0,0,1.0
302013,302012,'1',0.011349425449062861,0.020996439083862947,0.003636915894967387,/'UG Cable/',1250,1250,1250,0,0,0,0,0,0,0,0,0,0.0,0.0,0.0,0.0,1,1,6754.327,1,1.0,0,1.0,0,1.0,0,1.0
302014,302013,'1',0.014013933349221576,0.025925777009043766,0.004490755300648743,/'UG Cable/',1250,1250,1250,0,0,0,0,0,0,0,0,0,0.0,0.0,0.0,0.0,1,1,8340.042,1,1.0,0,1.0,0,1.0,0,1.0
102015,302014,'1',0.013326677147317048,0.024654353974471948,0.0042705248115817085,/'UG Cable/',1250,1250,1250,0,0,0,0,0,0,0,0,0,0.0,0.0,0.0,0.0,1,1,7931.039,1,1.0,0,1.0,0,1.0,0,1.0
102016,102015,'1',0.0032288741224129093,0.005037043493251243,6.34605966424715E-4,/'UG Cable/',1000,1000,1000,0,0,0,0,0,0,0,0,0,0.0,0.0,0.0,0.0,1,1,1537.267,1,1.0,0,1.0,0,1.0,0,1.0
102017,102016,'1',0.004221775956926063,0.004966795206620798,5.43793244223707E-4,/'UG Cable/',750,750,750,0,0,0,0,0,0,0,0,0,0.0,0.0,0.0,0.0,1,1,1477.932,1,1.0,0,1.0,0,1.0,0,1.0
102018,102017,'1',0.0065628957958738235,0.005759275953600923,5.00724381663531E-4,/'UG Cable/',500,500,500,0,0,0,0,0,0,0,0,0,0.0,0.0,0.0,0.0,1,1,1594.181,1,1.0,0,1.0,0,1.0,0,1.0
102019,102018,'1',0.013997555530213979,0.005742587028644436,3.13538563759721E-4,/'UG Cable/',4,4,4,0,0,0,0,0,0,0,0,0,0.0,0.0,0.0,0.0,1,1,1423.982,1,1.0,0,1.0,0,1.0,0,1.0
102020,102019,'1',0.031219716083099553,0.0067165927760767805,2.5914210511473356E-4,/'UG Cable/',1,1,1,0,0,0,0,0,0,0,0,0,0.0,0.0,0.0,0.0,1,1,1480.449,1,1.0,0,1.0,0,1.0,0,1.0
303021,1,'1',0.013664515672974966,0.025279355184342326,0.004378785039443755,/'UG Cable/',1250,1250,1250,0,0,0,0,0,0,0,0,0,0.0,0.0,0.0,0.0,1,1,8132.095,1,1.0,0,1.0,0,1.0,0,1.0
303022,303021,'1',0.013500473324527912,0.02497587602595726,0.0043262175735435445,/'UG Cable/',1250,1250,1250,0,0,0,0,0,0,0,0,0,0.0,0.0,0.0,0.0,1,1,8034.469,1,1.0,0,1.0,0,1.0,0,1.0
303023,303022,'1',0.011392219105179483,0.02107560897519473,0.003650629162002588,/'UG Cable/',1250,1250,1250,0,0,0,0,0,0,0,0,0,0.0,0.0,0.0,0.0,1,1,6779.795,1,1.0,0,1.0,0,1.0,0,1.0
103024,303023,'1',0.008235452706461768,0.015235589447454153,0.0026390454432112164,/'UG Cable/',1250,1250,1250,0,0,0,0,0,0,0,0,0,0.0,0.0,0.0,0.0,1,1,4901.124,1,1.0,0,1.0,0,1.0,0,1.0
103025,103024,'1',0.0030988490498884713,0.004834204292477642,6.090507302178594E-4,/'UG Cable/',1000,1000,1000,0,0,0,0,0,0,0,0,0,0.0,0.0,0.0,0.0,1,1,1475.362,1,1.0,0,1.0,0,1.0,0,1.0
103026,103025,'1',0.0042820920139970565,0.005037754905546846,5.515623173141649E-4,/'UG Cable/',750,750,750,0,0,0,0,0,0,0,0,0,0.0,0.0,0.0,0.0,1,1,1499.047,1,1.0,0,1.0,0,1.0,0,1.0
103027,103026,'1',0.005799030536514599,0.005088945605428849,4.4244433909625515E-4,/'UG Cable/',500,500,500,0,0,0,0,0,0,0,0,0,0.0,0.0,0.0,0.0,1,1,1408.632,1,1.0,0,1.0,0,1.0,0,1.0
103028,103027,'1',0.014036893844604492,0.005758725727989102,3.144197183291908E-4,/'UG Cable/',4,4,4,0,0,0,0,0,0,0,0,0,0.0,0.0,0.0,0.0,1,1,1427.984,1,1.0,0,1.0,0,1.0,0,1.0
103029,103028,'1',0.0299387708278144,0.00644101049438842,2.485094907660823E-4,/'UG Cable/',1,1,1,0,0,0,0,0,0,0,0,0,0.0,0.0,0.0,0.0,1,1,1419.706,1,1.0,0,1.0,0,1.0,0,1.0
304030,1,'1',0.013656722375060099,0.025264937896183674,0.004376287435297855,/'UG Cable/',1250,1250,1250,0,0,0,0,0,0,0,0,0,0.0,0.0,0.0,0.0,1,1,8127.457,1,1.0,0,1.0,0,1.0,0,1.0
304031,304030,'1',0.013442488684170488,0.02486860519245727,0.00430763623007806,/'UG Cable/',1250,1250,1250,0,0,0,0,0,0,0,0,0,0.0,0.0,0.0,0.0,1,1,7999.961,1,1.0,0,1.0,0,1.0,0,1.0
304032,304031,'1',0.01145504873556591,0.021191841162345258,0.0036707627612486246,/'UG Cable/',1250,1250,1250,0,0,0,0,0,0,0,0,0,0.0,0.0,0.0,0.0,1,1,6817.186,1,1.0,0,1.0,0,1.0,0,1.0
104033,304032,'1',0.0032244350724399554,0.005965205556929199,0.0010332681015825073,/'UG Cable/',1250,1250,1250,0,0,0,0,0,0,0,0,0,0.0,0.0,0.0,0.0,1,1,1918.942,1,1.0,0,1.0,0,1.0,0,1.0
104034,104033,'1',0.0029982062754223414,0.004677201889813685,5.892703375775454E-4,/'UG Cable/',1000,1000,1000,0,0,0,0,0,0,0,0,0,0.0,0.0,0.0,0.0,1,1,1427.446,1,1.0,0,1.0,0,1.0,0,1.0
104035,104034,'1',0.01382518405549743,0.016264921976372717,0.0017807770336730755,/'UG Cable/',750,750,750,0,0,0,0,0,0,0,0,0,0.0,0.0,0.0,0.0,1,1,4839.831,1,1.0,0,1.0,0,1.0,0,1.0
104036,104035,'1',0.006152514498966428,0.005399145466067966,4.6941383066041454E-4,/'UG Cable/',500,500,500,0,0,0,0,0,0,0,0,0,0.0,0.0,0.0,0.0,1,1,1494.496,1,1.0,0,1.0,0,1.0,0,1.0
104037,104036,'1',0.014064466470030521,0.005770037590368184,3.1503732110195416E-4,/'UG Cable/',4,4,4,0,0,0,0,0,0,0,0,0,0.0,0.0,0.0,0.0,1,1,1430.789,1,1.0,0,1.0,0,1.0,0,1.0
104038,104037,'1',0.031158646673896787,0.006703453713969708,2.5863517980724283E-4,/'UG Cable/',1,1,1,0,0,0,0,0,0,0,0,0,0.0,0.0,0.0,0.0,1,1,1477.553,1,1.0,0,1.0,0,1.0,0,1.0
301039,2,'1',0.07680409897578111,0.03150937387458018,0.001720375023505767,/'UG Cable/',4,4,4,0,0,0,0,0,0,0,0,0,0.0,0.0,0.0,0.0,1,1,7813.34,1,1.0,0,1.0,0,1.0,0,1.0
301040,301039,'1',0.07730025099345902,0.03171292354869783,0.0017314886691383435,/'UG Cable/',4,4,4,0,0,0,0,0,0,0,0,0,0.0,0.0,0.0,0.0,1,1,7863.814,1,1.0,0,1.0,0,1.0,0,1.0
301041,301040,'1',0.07172414070166251,0.029425289520218802,0.001606586464913562,/'UG Cable/',4,4,4,0,0,0,0,0,0,0,0,0,0.0,0.0,0.0,0.0,1,1,7296.552,1,1.0,0,1.0,0,1.0,0,1.0
101042,301041,'1',0.07134065786296394,0.029267963805235726,0.0015979967504608794,/'UG Cable/',4,4,4,0,0,0,0,0,0,0,0,0,0.0,0.0,0.0,0.0,1,1,7257.54,1,1.0,0,1.0,0,1.0,0,1.0
101043,101042,'1',0.03199316177816858,0.0068829912669617094,2.655621558687926E-4,/'UG Cable/',1,1,1,0,0,0,0,0,0,0,0,0,0.0,0.0,0.0,0.0,1,1,1517.126,1,1.0,0,1.0,0,1.0,0,1.0
302044,2,'1',0.01313718795976677,0.024303799540874863,0.004209803239718895,/'UG Cable/',1250,1250,1250,0,0,0,0,0,0,0,0,0,0.0,0.0,0.0,0.0,1,1,7818.269,1,1.0,0,1.0,0,1.0,0,1.0
302045,302044,'1',0.013183430697932461,0.024389346791175052,0.00422462154936511,/'UG Cable/',1250,1250,1250,0,0,0,0,0,0,0,0,0,0.0,0.0,0.0,0.0,1,1,7845.789,1,1.0,0,1.0,0,1.0,0,1.0
302046,302045,'1',0.01227422011947712,0.022707308973742242,0.003933265806699638,/'UG Cable/',1250,1250,1250,0,0,0,0,0,0,0,0,0,0.0,0.0,0.0,0.0,1,1,7304.696,1,1.0,0,1.0,0,1.0,0,1.0
102047,302046,'1',0.012971867385268137,0.023997956728439476,0.004156826319158427,/'UG Cable/',1250,1250,1250,0,0,0,0,0,0,0,0,0,0.0,0.0,0.0,0.0,1,1,7719.883,1,1.0,0,1.0,0,1.0,0,1.0
102048,102047,'1',0.0030242637460208247,0.00471785160654409,5.943916818068829E-4,/'UG Cable/',1000,1000,1000,0,0,0,0,0,0,0,0,0,0.0,0.0,0.0,0.0,1,1,1439.852,1,1.0,0,1.0,0,1.0,0,1.0
102049,102048,'1',0.004461942863824913,0.005249344195870887,5.74728331885126E-4,/'UG Cable/',750,750,750,0,0,0,0,0,0,0,0,0,0.0,0.0,0.0,0.0,1,1,1562.008,1,1.0,0,1.0,0,1.0,0,1.0
102050,102049,'1',0.00588234621195001,0.005162059259224379,4.488010187742475E-4,/'UG Cable/',500,500,500,0,0,0,0,0,0,0,0,0,0.0,0.0,0.0,0.0,1,1,1428.87,1,1.0,0,1.0,0,1.0,0,1.0
102051,102050,'1',0.014382953830086817,0.005900698959063743,3.2217129779837705E-4,/'UG Cable/',4,4,4,0,0,0,0,0,0,0,0,0,0.0,0.0,0.0,0.0,1,1,1463.189,1,1.0,0,1.0,0,1.0,0,1.0
102052,102051,'1',0.030658756377090556,0.006595908080647658,2.544858140845463E-4,/'UG Cable/',1,1,1,0,0,0,0,0,0,0,0,0,0.0,0.0,0.0,0.0,1,1,1453.848,1,1.0,0,1.0,0,1.0,0,1.0
303053,2,'1',0.013167536125992356,0.024359943836182514,0.004219528307512519,/'UG Cable/',1250,1250,1250,0,0,0,0,0,0,0,0,0,0.0,0.0,0.0,0.0,1,1,7836.33,1,1.0,0,1.0,0,1.0,0,1.0
303054,303053,'1',0.01318071274616167,0.024384319018576482,0.004223750678793294,/'UG Cable/',1250,1250,1250,0,0,0,0,0,0,0,0,0,0.0,0.0,0.0,0.0,1,1,7844.172,1,1.0,0,1.0,0,1.0,0,1.0
303055,303054,'1',0.012287252767074512,0.022731418745829714,0.003937441759262583,/'UG Cable/',1250,1250,1250,0,0,0,0,0,0,0,0,0,0.0,0.0,0.0,0.0,1,1,7312.451,1,1.0,0,1.0,0,1.0,0,1.0
103056,303055,'1',0.005124918091474925,0.009481099642918055,0.0016422765699826414,/'UG Cable/',1250,1250,1250,0,0,0,0,0,0,0,0,0,0.0,0.0,0.0,0.0,1,1,3049.967,1,1.0,0,1.0,0,1.0,0,1.0
103057,103056,'1',0.003147703951282978,0.004910418364311111,6.186527364479843E-4,/'UG Cable/',1000,1000,1000,0,0,0,0,0,0,0,0,0,0.0,0.0,0.0,0.0,1,1,1498.622,1,1.0,0,1.0,0,1.0,0,1.0
103058,103057,'1',0.004048381025013466,0.004762800782449454,5.214587828777439E-4,/'UG Cable/',750,750,750,0,0,0,0,0,0,0,0,0,0.0,0.0,0.0,0.0,1,1,1417.231,1,1.0,0,1.0,0,1.0,0,1.0
103059,103058,'1',0.005840252387726464,0.0051251196530756144,4.455893804333755E-4,/'UG Cable/',500,500,500,0,0,0,0,0,0,0,0,0,0.0,0.0,0.0,0.0,1,1,1418.645,1,1.0,0,1.0,0,1.0,0,1.0
103060,103059,'1',0.01328301214415645,0.005449440719149388,2.975331343759535E-4,/'UG Cable/',4,4,4,0,0,0,0,0,0,0,0,0,0.0,0.0,0.0,0.0,1,1,1351.291,1,1.0,0,1.0,0,1.0,0,1.0
103061,103060,'1',0.027686634175894117,0.005956487078747813,2.2981543468631572E-4,/'UG Cable/',1,1,1,0,0,0,0,0,0,0,0,0,0.0,0.0,0.0,0.0,1,1,1312.909,1,1.0,0,1.0,0,1.0,0,1.0
304062,2,'1',0.022379231788460584,0.026328507102705106,0.00288259614186245,/'UG Cable/',750,750,750,0,0,0,0,0,0,0,0,0,0.0,0.0,0.0,0.0,1,1,7834.377,1,1.0,0,1.0,0,1.0,0,1.0
104063,304062,'1',0.016042259004380967,0.018873245519290725,0.0020663512211103806,/'UG Cable/',750,750,750,0,0,0,0,0,0,0,0,0,0.0,0.0,0.0,0.0,1,1,5615.97,1,1.0,0,1.0,0,1.0,0,1.0
104064,104063,'1',0.010171337954964464,0.011966279063297905,0.0013101369607829837,/'UG Cable/',750,750,750,0,0,0,0,0,0,0,0,0,0.0,0.0,0.0,0.0,1,1,3560.716,1,1.0,0,1.0,0,1.0,0,1.0
104065,104064,'1',0.00491662733796714,0.0043145913182374585,3.75120267535749E-4,/'UG Cable/',500,500,500,0,0,0,0,0,0,0,0,0,0.0,0.0,0.0,0.0,1,1,1194.289,1,1.0,0,1.0,0,1.0,0,1.0
104066,104065,'1',0.024943022736980243,0.021888773573018303,0.0019030591784030548,/'UG Cable/',500,500,500,0,0,0,0,0,0,0,0,0,0.0,0.0,0.0,0.0,1,1,6058.864,1,1.0,0,1.0,0,1.0,0,1.0
104067,104066,'1',0.013740670903844258,0.005637198480030389,3.0778446139265723E-4,/'UG Cable/',4,4,4,0,0,0,0,0,0,0,0,0,0.0,0.0,0.0,0.0,1,1,1397.849,1,1.0,0,1.0,0,1.0,0,1.0
104068,104067,'1',0.030233431353185437,0.006504403495708451,2.5095535016589565E-4,/'UG Cable/',1,1,1,0,0,0,0,0,0,0,0,0,0.0,0.0,0.0,0.0,1,1,1433.679,1,1.0,0,1.0,0,1.0,0,1.0
305069,2,'1',0.012894299971258608,0.023854454884231654,0.0041319697885774075,/'UG Cable/',1250,1250,1250,0,0,0,0,0,0,0,0,0,0.0,0.0,0.0,0.0,1,1,7673.72,1,1.0,0,1.0,0,1.0,0,1.0
305070,305069,'1',0.012882042271678775,0.023831779830121764,0.004128041864387342,/'UG Cable/',1250,1250,1250,0,0,0,0,0,0,0,0,0,0.0,0.0,0.0,0.0,1,1,7666.426,1,1.0,0,1.0,0,1.0,0,1.0
305071,305070,'1',0.0138551541372298,0.025632037908133027,0.004439874843374127,/'UG Cable/',1250,1250,1250,0,0,0,0,0,0,0,0,0,0.0,0.0,0.0,0.0,1,1,8245.549,1,1.0,0,1.0,0,1.0,0,1.0
305072,305071,'1',0.009286013678126264,0.01717912652517061,0.0029756968478614,/'UG Cable/',1250,1250,1250,0,0,0,0,0,0,0,0,0,0.0,0.0,0.0,0.0,1,1,5526.339,1,1.0,0,1.0,0,1.0,0,1.0
105073,305072,'1',0.009480946280830575,0.017539751527189732,0.0030381629321345827,/'UG Cable/',1250,1250,1250,0,0,0,0,0,0,0,0,0,0.0,0.0,0.0,0.0,1,1,5642.348,1,1.0,0,1.0,0,1.0,0,1.0
105074,105073,'1',0.0059331923166109565,0.009255780063990509,0.001166115267733403,/'UG Cable/',1000,1000,1000,0,0,0,0,0,0,0,0,0,0.0,0.0,0.0,0.0,1,1,2824.793,1,1.0,0,1.0,0,1.0,0,1.0
105075,105074,'1',0.0048866222020433475,0.005748966891483659,6.294298896773398E-4,/'UG Cable/',750,750,750,0,0,0,0,0,0,0,0,0,0.0,0.0,0.0,0.0,1,1,1710.677,1,1.0,0,1.0,0,1.0,0,1.0
105076,105075,'1',0.004985320094853133,0.004374872947084731,3.8036125254620857E-4,/'UG Cable/',500,500,500,0,0,0,0,0,0,0,0,0,0.0,0.0,0.0,0.0,1,1,1210.975,1,1.0,0,1.0,0,1.0,0,1.0
105077,105076,'1',0.013446089250403926,0.005516344147353482,3.0118596704141964E-4,/'UG Cable/',4,4,4,0,0,0,0,0,0,0,0,0,0.0,0.0,0.0,0.0,1,1,1367.881,1,1.0,0,1.0,0,1.0,0,1.0
105078,105077,'1',0.029879994964279115,0.006428365946767511,2.4802163956792354E-4,/'UG Cable/',1,1,1,0,0,0,0,0,0,0,0,0,0.0,0.0,0.0,0.0,1,1,1416.919,1,1.0,0,1.0,0,1.0,0,1.0
301079,3,'1',0.012936549035472747,0.02393261571562458,0.004145508465808234,/'UG Cable/',1250,1250,1250,0,0,0,0,0,0,0,0,0,0.0,0.0,0.0,0.0,1,1,7698.864,1,1.0,0,1.0,0,1.0,0,1.0
301080,301079,'1',0.012966552919461131,0.02398812402774496,0.004155123375749099,/'UG Cable/',1250,1250,1250,0,0,0,0,0,0,0,0,0,0.0,0.0,0.0,0.0,1,1,7716.72,1,1.0,0,1.0,0,1.0,0,1.0
301081,301080,'1',0.013888474398114005,0.02569368070375266,0.004450552534108283,/'UG Cable/',1250,1250,1250,0,0,0,0,0,0,0,0,0,0.0,0.0,0.0,0.0,1,1,8265.379,1,1.0,0,1.0,0,1.0,0,1.0
101082,301081,'1',0.01015004378560961,0.01877758263089381,0.003252574800280854,/'UG Cable/',1250,1250,1250,0,0,0,0,0,0,0,0,0,0.0,0.0,0.0,0.0,1,1,6040.545,1,1.0,0,1.0,0,1.0,0,1.0
101083,101082,'1',0.0027589351283079234,0.004303938912834548,5.422437597098906E-4,/'UG Cable/',1000,1000,1000,0,0,0,0,0,0,0,0,0,0.0,0.0,0.0,0.0,1,1,1313.529,1,1.0,0,1.0,0,1.0,0,1.0
101084,101083,'1',0.0037939542608335223,0.00446347554574817,4.88686908283853E-4,/'UG Cable/',750,750,750,0,0,0,0,0,0,0,0,0,0.0,0.0,0.0,0.0,1,1,1328.163,1,1.0,0,1.0,0,1.0,0,1.0
101085,101084,'1',0.021227799251134143,0.018628477123799732,0.0016196015459354384,/'UG Cable/',500,500,500,0,0,0,0,0,0,0,0,0,0.0,0.0,0.0,0.0,1,1,5156.406,1,1.0,0,1.0,0,1.0,0,1.0
101086,101085,'1',0.013385410445048464,0.0054914500377328925,2.9982679061049564E-4,/'UG Cable/',4,4,4,0,0,0,0,0,0,0,0,0,0.0,0.0,0.0,0.0,1,1,1361.708,1,1.0,0,1.0,0,1.0,0,1.0
101087,101086,'1',0.027134653350631373,0.005837734745620955,2.2523368640122498E-4,/'UG Cable/',1,1,1,0,0,0,0,0,0,0,0,0,0.0,0.0,0.0,0.0,1,1,1286.734,1,1.0,0,1.0,0,1.0,0,1.0
302088,3,'1',0.012874976348235962,0.023818707120591316,0.004125777393055614,/'UG Cable/',1250,1250,1250,0,0,0,0,0,0,0,0,0,0.0,0.0,0.0,0.0,1,1,7662.22,1,1.0,0,1.0,0,1.0,0,1.0
302089,302088,'1',0.012963753591888819,0.02398294602289743,0.00415422617814329,/'UG Cable/',1250,1250,1250,0,0,0,0,0,0,0,0,0,0.0,0.0,0.0,0.0,1,1,7715.054,1,1.0,0,1.0,0,1.0,0,1.0
102090,302089,'1',0.014056298843428659,0.02600415317332687,0.004504331389980507,/'UG Cable/',1250,1250,1250,0,0,0,0,0,0,0,0,0,0.0,0.0,0.0,0.0,1,1,8365.255,1,1.0,0,1.0,0,1.0,0,1.0
102091,102090,'1',0.0028511489346557694,0.004447792237908168,5.603674977555784E-4,/'UG Cable/',1000,1000,1000,0,0,0,0,0,0,0,0,0,0.0,0.0,0.0,0.0,1,1,1357.432,1,1.0,0,1.0,0,1.0,0,1.0
102092,102091,'1',0.003845138075070781,0.004523691760970374,4.952797518490115E-4,/'UG Cable/',750,750,750,0,0,0,0,0,0,0,0,0,0.0,0.0,0.0,0.0,1,1,1346.081,1,1.0,0,1.0,0,1.0,0,1.0
102093,102092,'1',0.005581603158399153,0.004898141572716306,4.258554498119338E-4,/'UG Cable/',500,500,500,0,0,0,0,0,0,0,0,0,0.0,0.0,0.0,0.0,1,1,1355.817,1,1.0,0,1.0,0,1.0,0,1.0
102094,102093,'1',0.013613128732217757,0.005584873213684877,3.0492758849504754E-4,/'UG Cable/',4,4,4,0,0,0,0,0,0,0,0,0,0.0,0.0,0.0,0.0,1,1,1384.874,1,1.0,0,1.0,0,1.0,0,1.0
102095,102094,'1',0.023770865660909593,0.005114050979149539,1.9731224306269725E-4,/'UG Cable/',1,1,1,0,0,0,0,0,0,0,0,0,0.0,0.0,0.0,0.0,1,1,1127.222,1,1.0,0,1.0,0,1.0,0,1.0
303096,3,'1',0.012782535941579267,0.02364769274385705,0.004096155322913546,/'UG Cable/',1250,1250,1250,0,0,0,0,0,0,0,0,0,0.0,0.0,0.0,0.0,1,1,7607.207,1,1.0,0,1.0,0,1.0,0,1.0
303097,303096,'1',0.013039957648239025,0.024123921461451883,0.00417864554139669,/'UG Cable/',1250,1250,1250,0,0,0,0,0,0,0,0,0,0.0,0.0,0.0,0.0,1,1,7760.405,1,1.0,0,1.0,0,1.0,0,1.0
303098,303097,'1',0.009072139292698752,0.016783458599145862,0.0029071609966194955,/'UG Cable/',1250,1250,1250,0,0,0,0,0,0,0,0,0,0.0,0.0,0.0,0.0,1,1,5399.057,1,1.0,0,1.0,0,1.0,0,1.0
103099,303098,'1',0.013804502082557093,0.025538330542843424,0.004423643534100847,/'UG Cable/',1250,1250,1250,0,0,0,0,0,0,0,0,0,0.0,0.0,0.0,0.0,1,1,8215.404,1,1.0,0,1.0,0,1.0,0,1.0
103100,103099,'1',0.002715431624814959,0.0042360733722693975,5.336934925071545E-4,/'UG Cable/',1000,1000,1000,0,0,0,0,0,0,0,0,0,0.0,0.0,0.0,0.0,1,1,1292.817,1,1.0,0,1.0,0,1.0,0,1.0
103101,103100,'1',0.013513745091788234,0.015898523048251848,0.001740661562034802,/'UG Cable/',750,750,750,0,0,0,0,0,0,0,0,0,0.0,0.0,0.0,0.0,1,1,4730.804,1,1.0,0,1.0,0,1.0,0,1.0
103102,103101,'1',0.005180780701315771,0.004546399678384725,3.9527417497083663E-4,/'UG Cable/',500,500,500,0,0,0,0,0,0,0,0,0,0.0,0.0,0.0,0.0,1,1,1258.454,1,1.0,0,1.0,0,1.0,0,1.0
103103,103102,'1',0.01254576240560383,0.00514697969723489,2.81019090944028E-4,/'UG Cable/',4,4,4,0,0,0,0,0,0,0,0,0,0.0,0.0,0.0,0.0,1,1,1276.29,1,1.0,0,1.0,0,1.0,0,1.0
103104,103103,'1',0.027780852330830188,0.005976757164938914,2.3059751646997028E-4,/'UG Cable/',1,1,1,0,0,0,0,0,0,0,0,0,0.0,0.0,0.0,0.0,1,1,1317.377,1,1.0,0,1.0,0,1.0,0,1.0
304105,3,'1',0.00790281847629495,0.012328396372323375,0.0015532274559518556,/'UG Cable/',1000,1000,1000,0,0,0,0,0,0,0,0,0,0.0,0.0,0.0,0.0,1,1,3762.532,1,1.0,0,1.0,0,1.0,0,1.0
104106,304105,'1',0.017507261299481037,0.027311326475409844,0.0034408938064734683,/'UG Cable/',1000,1000,1000,0,0,0,0,0,0,0,0,0,0.0,0.0,0.0,0.0,1,1,8335.207,1,1.0,0,1.0,0,1.0,0,1.0
104107,104106,'1',0.00257225371889396,0.0040127158891100564,5.055531840480399E-4,/'UG Cable/',1000,1000,1000,0,0,0,0,0,0,0,0,0,0.0,0.0,0.0,0.0,1,1,1224.65,1,1.0,0,1.0,0,1.0,0,1.0
104108,104107,'1',0.014711492979534032,0.017307637694802914,0.0018949395400704816,/'UG Cable/',750,750,750,0,0,0,0,0,0,0,0,0,0.0,0.0,0.0,0.0,1,1,5150.104,1,1.0,0,1.0,0,1.0,0,1.0
104109,104108,'1',0.008445886773388067,0.007411696735086423,6.443895772281394E-4,/'UG Cable/',500,500,500,0,0,0,0,0,0,0,0,0,0.0,0.0,0.0,0.0,1,1,2051.575,1,1.0,0,1.0,0,1.0,0,1.0
104110,104109,'1',0.004414141153092395,0.003873634315844069,3.367824552560705E-4,/'UG Cable/',500,500,500,0,0,0,0,0,0,0,0,0,0.0,0.0,0.0,0.0,1,1,1072.231,1,1.0,0,1.0,0,1.0,0,1.0
104111,104110,'1',0.004392898939056974,0.0038549929976187895,3.35161740526928E-4,/'UG Cable/',500,500,500,0,0,0,0,0,0,0,0,0,0.0,0.0,0.0,0.0,1,1,1067.071,1,1.0,0,1.0,0,1.0,0,1.0
104112,104111,'1',0.010700676276437927,0.004390021052537809,2.3969004263108218E-4,/'UG Cable/',4,4,4,0,0,0,0,0,0,0,0,0,0.0,0.0,0.0,0.0,1,1,1088.588,1,1.0,0,1.0,0,1.0,0,1.0
104113,104112,'1',0.03963928467034042,0.016262271629113957,8.879010451346402E-4,/'UG Cable/',4,4,4,0,0,0,0,0,0,0,0,0,0.0,0.0,0.0,0.0,1,1,4032.535,1,1.0,0,1.0,0,1.0,0,1.0
104114,104113,'1',0.021338720728283894,0.004590800506581381,1.7712399790070776E-4,/'UG Cable/',1,1,1,0,0,0,0,0,0,0,0,0,0.0,0.0,0.0,0.0,1,1,1011.889,1,1.0,0,1.0,0,1.0,0,1.0
104115,104114,'1',0.022032137704331243,0.004739981755767643,1.8287976735791744E-4,/'UG Cable/',1,1,1,0,0,0,0,0,0,0,0,0,0.0,0.0,0.0,0.0,1,1,1044.771,1,1.0,0,1.0,0,1.0,0,1.0
104116,104115,'1',0.02285735092852151,0.00491751809000994,1.8972953766024147E-4,/'UG Cable/',1,1,1,0,0,0,0,0,0,0,0,0,0.0,0.0,0.0,0.0,1,1,1083.903,1,1.0,0,1.0,0,1.0,0,1.0
101005,401005,'1',0.0023905903,0.001873892,9.193966E-5,/'Downtower Cable/',279,279,279,0,0,0,0,0,0,0,0,0,0.0,0.0,0.0,0.0,1,1,5072.203,1,1.0,0,1.0,0,1.0,0,1.0
101006,401006,'1',0.0023905903,0.001873892,9.193966E-5,/'Downtower Cable/',279,279,279,0,0,0,0,0,0,0,0,0,0.0,0.0,0.0,0.0,1,1,1458.588,1,1.0,0,1.0,0,1.0,0,1.0
101007,401007,'1',0.0023905903,0.001873892,9.193966E-5,/'Downtower Cable/',279,279,279,0,0,0,0,0,0,0,0,0,0.0,0.0,0.0,0.0,1,1,6400.027,1,1.0,0,1.0,0,1.0,0,1.0
101008,401008,'1',0.0023905903,0.001873892,9.193966E-5,/'Downtower Cable/',279,279,279,0,0,0,0,0,0,0,0,0,0.0,0.0,0.0,0.0,1,1,1349.352,1,1.0,0,1.0,0,1.0,0,1.0
101009,401009,'1',0.0023905903,0.001873892,9.193966E-5,/'Downtower Cable/',279,279,279,0,0,0,0,0,0,0,0,0,0.0,0.0,0.0,0.0,1,1,1462.444,1,1.0,0,1.0,0,1.0,0,1.0
101010,401010,'1',0.0023905903,0.001873892,9.193966E-5,/'Downtower Cable/',279,279,279,0,0,0,0,0,0,0,0,0,0.0,0.0,0.0,0.0,1,1,1387.876,1,1.0,0,1.0,0,1.0,0,1.0
102015,402015,'1',0.0023905903,0.001873892,9.193966E-5,/'Downtower Cable/',279,279,279,0,0,0,0,0,0,0,0,0,0.0,0.0,0.0,0.0,1,1,7931.039,1,1.0,0,1.0,0,1.0,0,1.0
102016,402016,'1',0.0023905903,0.001873892,9.193966E-5,/'Downtower Cable/',279,279,279,0,0,0,0,0,0,0,0,0,0.0,0.0,0.0,0.0,1,1,1537.267,1,1.0,0,1.0,0,1.0,0,1.0
102017,402017,'1',0.0023905903,0.001873892,9.193966E-5,/'Downtower Cable/',279,279,279,0,0,0,0,0,0,0,0,0,0.0,0.0,0.0,0.0,1,1,1477.932,1,1.0,0,1.0,0,1.0,0,1.0
102018,402018,'1',0.0023905903,0.001873892,9.193966E-5,/'Downtower Cable/',279,279,279,0,0,0,0,0,0,0,0,0,0.0,0.0,0.0,0.0,1,1,1594.181,1,1.0,0,1.0,0,1.0,0,1.0
102019,402019,'1',0.0023905903,0.001873892,9.193966E-5,/'Downtower Cable/',279,279,279,0,0,0,0,0,0,0,0,0,0.0,0.0,0.0,0.0,1,1,1423.982,1,1.0,0,1.0,0,1.0,0,1.0
102020,402020,'1',0.0023905903,0.001873892,9.193966E-5,/'Downtower Cable/',279,279,279,0,0,0,0,0,0,0,0,0,0.0,0.0,0.0,0.0,1,1,1480.449,1,1.0,0,1.0,0,1.0,0,1.0
103024,403024,'1',0.0023905903,0.001873892,9.193966E-5,/'Downtower Cable/',279,279,279,0,0,0,0,0,0,0,0,0,0.0,0.0,0.0,0.0,1,1,4901.124,1,1.0,0,1.0,0,1.0,0,1.0
103025,403025,'1',0.0023905903,0.001873892,9.193966E-5,/'Downtower Cable/',279,279,279,0,0,0,0,0,0,0,0,0,0.0,0.0,0.0,0.0,1,1,1475.362,1,1.0,0,1.0,0,1.0,0,1.0
103026,403026,'1',0.0023905903,0.001873892,9.193966E-5,/'Downtower Cable/',279,279,279,0,0,0,0,0,0,0,0,0,0.0,0.0,0.0,0.0,1,1,1499.047,1,1.0,0,1.0,0,1.0,0,1.0
103027,403027,'1',0.0023905903,0.001873892,9.193966E-5,/'Downtower Cable/',279,279,279,0,0,0,0,0,0,0,0,0,0.0,0.0,0.0,0.0,1,1,1408.632,1,1.0,0,1.0,0,1.0,0,1.0
103028,403028,'1',0.0023905903,0.001873892,9.193966E-5,/'Downtower Cable/',279,279,279,0,0,0,0,0,0,0,0,0,0.0,0.0,0.0,0.0,1,1,1427.984,1,1.0,0,1.0,0,1.0,0,1.0
103029,403029,'1',0.0023905903,0.001873892,9.193966E-5,/'Downtower Cable/',279,279,279,0,0,0,0,0,0,0,0,0,0.0,0.0,0.0,0.0,1,1,1419.706,1,1.0,0,1.0,0,1.0,0,1.0
104033,404033,'1',0.0023905903,0.001873892,9.193966E-5,/'Downtower Cable/',279,279,279,0,0,0,0,0,0,0,0,0,0.0,0.0,0.0,0.0,1,1,1918.942,1,1.0,0,1.0,0,1.0,0,1.0
104034,404034,'1',0.0023905903,0.001873892,9.193966E-5,/'Downtower Cable/',279,279,279,0,0,0,0,0,0,0,0,0,0.0,0.0,0.0,0.0,1,1,1427.446,1,1.0,0,1.0,0,1.0,0,1.0
104035,404035,'1',0.0023905903,0.001873892,9.193966E-5,/'Downtower Cable/',279,279,279,0,0,0,0,0,0,0,0,0,0.0,0.0,0.0,0.0,1,1,4839.831,1,1.0,0,1.0,0,1.0,0,1.0
104036,404036,'1',0.0023905903,0.001873892,9.193966E-5,/'Downtower Cable/',279,279,279,0,0,0,0,0,0,0,0,0,0.0,0.0,0.0,0.0,1,1,1494.496,1,1.0,0,1.0,0,1.0,0,1.0
104037,404037,'1',0.0023905903,0.001873892,9.193966E-5,/'Downtower Cable/',279,279,279,0,0,0,0,0,0,0,0,0,0.0,0.0,0.0,0.0,1,1,1430.789,1,1.0,0,1.0,0,1.0,0,1.0
104038,404038,'1',0.0023905903,0.001873892,9.193966E-5,/'Downtower Cable/',279,279,279,0,0,0,0,0,0,0,0,0,0.0,0.0,0.0,0.0,1,1,1477.553,1,1.0,0,1.0,0,1.0,0,1.0
101042,401042,'1',0.0023905903,0.001873892,9.193966E-5,/'Downtower Cable/',279,279,279,0,0,0,0,0,0,0,0,0,0.0,0.0,0.0,0.0,1,1,7257.54,1,1.0,0,1.0,0,1.0,0,1.0
101043,401043,'1',0.0023905903,0.001873892,9.193966E-5,/'Downtower Cable/',279,279,279,0,0,0,0,0,0,0,0,0,0.0,0.0,0.0,0.0,1,1,1517.126,1,1.0,0,1.0,0,1.0,0,1.0
102047,402047,'1',0.0023905903,0.001873892,9.193966E-5,/'Downtower Cable/',279,279,279,0,0,0,0,0,0,0,0,0,0.0,0.0,0.0,0.0,1,1,7719.883,1,1.0,0,1.0,0,1.0,0,1.0
102048,402048,'1',0.0023905903,0.001873892,9.193966E-5,/'Downtower Cable/',279,279,279,0,0,0,0,0,0,0,0,0,0.0,0.0,0.0,0.0,1,1,1439.852,1,1.0,0,1.0,0,1.0,0,1.0
102049,402049,'1',0.0023905903,0.001873892,9.193966E-5,/'Downtower Cable/',279,279,279,0,0,0,0,0,0,0,0,0,0.0,0.0,0.0,0.0,1,1,1562.008,1,1.0,0,1.0,0,1.0,0,1.0
102050,402050,'1',0.0023905903,0.001873892,9.193966E-5,/'Downtower Cable/',279,279,279,0,0,0,0,0,0,0,0,0,0.0,0.0,0.0,0.0,1,1,1428.87,1,1.0,0,1.0,0,1.0,0,1.0
102051,402051,'1',0.0023905903,0.001873892,9.193966E-5,/'Downtower Cable/',279,279,279,0,0,0,0,0,0,0,0,0,0.0,0.0,0.0,0.0,1,1,1463.189,1,1.0,0,1.0,0,1.0,0,1.0
102052,402052,'1',0.0023905903,0.001873892,9.193966E-5,/'Downtower Cable/',279,279,279,0,0,0,0,0,0,0,0,0,0.0,0.0,0.0,0.0,1,1,1453.848,1,1.0,0,1.0,0,1.0,0,1.0
103056,403056,'1',0.0023905903,0.001873892,9.193966E-5,/'Downtower Cable/',279,279,279,0,0,0,0,0,0,0,0,0,0.0,0.0,0.0,0.0,1,1,3049.967,1,1.0,0,1.0,0,1.0,0,1.0
103057,403057,'1',0.0023905903,0.001873892,9.193966E-5,/'Downtower Cable/',279,279,279,0,0,0,0,0,0,0,0,0,0.0,0.0,0.0,0.0,1,1,1498.622,1,1.0,0,1.0,0,1.0,0,1.0
103058,403058,'1',0.0023905903,0.001873892,9.193966E-5,/'Downtower Cable/',279,279,279,0,0,0,0,0,0,0,0,0,0.0,0.0,0.0,0.0,1,1,1417.231,1,1.0,0,1.0,0,1.0,0,1.0
103059,403059,'1',0.0023905903,0.001873892,9.193966E-5,/'Downtower Cable/',279,279,279,0,0,0,0,0,0,0,0,0,0.0,0.0,0.0,0.0,1,1,1418.645,1,1.0,0,1.0,0,1.0,0,1.0
103060,403060,'1',0.0023905903,0.001873892,9.193966E-5,/'Downtower Cable/',279,279,279,0,0,0,0,0,0,0,0,0,0.0,0.0,0.0,0.0,1,1,1351.291,1,1.0,0,1.0,0,1.0,0,1.0
103061,403061,'1',0.0023905903,0.001873892,9.193966E-5,/'Downtower Cable/',279,279,279,0,0,0,0,0,0,0,0,0,0.0,0.0,0.0,0.0,1,1,1312.909,1,1.0,0,1.0,0,1.0,0,1.0
104063,404063,'1',0.0023905903,0.001873892,9.193966E-5,/'Downtower Cable/',279,279,279,0,0,0,0,0,0,0,0,0,0.0,0.0,0.0,0.0,1,1,5615.97,1,1.0,0,1.0,0,1.0,0,1.0
104064,404064,'1',0.0023905903,0.001873892,9.193966E-5,/'Downtower Cable/',279,279,279,0,0,0,0,0,0,0,0,0,0.0,0.0,0.0,0.0,1,1,3560.716,1,1.0,0,1.0,0,1.0,0,1.0
104065,404065,'1',0.0023905903,0.001873892,9.193966E-5,/'Downtower Cable/',279,279,279,0,0,0,0,0,0,0,0,0,0.0,0.0,0.0,0.0,1,1,1194.289,1,1.0,0,1.0,0,1.0,0,1.0
104066,404066,'1',0.0023905903,0.001873892,9.193966E-5,/'Downtower Cable/',279,279,279,0,0,0,0,0,0,0,0,0,0.0,0.0,0.0,0.0,1,1,6058.864,1,1.0,0,1.0,0,1.0,0,1.0
104067,404067,'1',0.0023905903,0.001873892,9.193966E-5,/'Downtower Cable/',279,279,279,0,0,0,0,0,0,0,0,0,0.0,0.0,0.0,0.0,1,1,1397.849,1,1.0,0,1.0,0,1.0,0,1.0
104068,404068,'1',0.0023905903,0.001873892,9.193966E-5,/'Downtower Cable/',279,279,279,0,0,0,0,0,0,0,0,0,0.0,0.0,0.0,0.0,1,1,1433.679,1,1.0,0,1.0,0,1.0,0,1.0
105073,405073,'1',0.0023905903,0.001873892,9.193966E-5,/'Downtower Cable/',279,279,279,0,0,0,0,0,0,0,0,0,0.0,0.0,0.0,0.0,1,1,5642.348,1,1.0,0,1.0,0,1.0,0,1.0
105074,405074,'1',0.0023905903,0.001873892,9.193966E-5,/'Downtower Cable/',279,279,279,0,0,0,0,0,0,0,0,0,0.0,0.0,0.0,0.0,1,1,2824.793,1,1.0,0,1.0,0,1.0,0,1.0
105075,405075,'1',0.0023905903,0.001873892,9.193966E-5,/'Downtower Cable/',279,279,279,0,0,0,0,0,0,0,0,0,0.0,0.0,0.0,0.0,1,1,1710.677,1,1.0,0,1.0,0,1.0,0,1.0
105076,405076,'1',0.0023905903,0.001873892,9.193966E-5,/'Downtower Cable/',279,279,279,0,0,0,0,0,0,0,0,0,0.0,0.0,0.0,0.0,1,1,1210.975,1,1.0,0,1.0,0,1.0,0,1.0
105077,405077,'1',0.0023905903,0.001873892,9.193966E-5,/'Downtower Cable/',279,279,279,0,0,0,0,0,0,0,0,0,0.0,0.0,0.0,0.0,1,1,1367.881,1,1.0,0,1.0,0,1.0,0,1.0
105078,405078,'1',0.0023905903,0.001873892,9.193966E-5,/'Downtower Cable/',279,279,279,0,0,0,0,0,0,0,0,0,0.0,0.0,0.0,0.0,1,1,1416.919,1,1.0,0,1.0,0,1.0,0,1.0
101082,401082,'1',0.0023905903,0.001873892,9.193966E-5,/'Downtower Cable/',279,279,279,0,0,0,0,0,0,0,0,0,0.0,0.0,0.0,0.0,1,1,6040.545,1,1.0,0,1.0,0,1.0,0,1.0
101083,401083,'1',0.0023905903,0.001873892,9.193966E-5,/'Downtower Cable/',279,279,279,0,0,0,0,0,0,0,0,0,0.0,0.0,0.0,0.0,1,1,1313.529,1,1.0,0,1.0,0,1.0,0,1.0
101084,401084,'1',0.0023905903,0.001873892,9.193966E-5,/'Downtower Cable/',279,279,279,0,0,0,0,0,0,0,0,0,0.0,0.0,0.0,0.0,1,1,1328.163,1,1.0,0,1.0,0,1.0,0,1.0
101085,401085,'1',0.0023905903,0.001873892,9.193966E-5,/'Downtower Cable/',279,279,279,0,0,0,0,0,0,0,0,0,0.0,0.0,0.0,0.0,1,1,5156.406,1,1.0,0,1.0,0,1.0,0,1.0
101086,401086,'1',0.0023905903,0.001873892,9.193966E-5,/'Downtower Cable/',279,279,279,0,0,0,0,0,0,0,0,0,0.0,0.0,0.0,0.0,1,1,1361.708,1,1.0,0,1.0,0,1.0,0,1.0
101087,401087,'1',0.0023905903,0.001873892,9.193966E-5,/'Downtower Cable/',279,279,279,0,0,0,0,0,0,0,0,0,0.0,0.0,0.0,0.0,1,1,1286.734,1,1.0,0,1.0,0,1.0,0,1.0
102090,402090,'1',0.0023905903,0.001873892,9.193966E-5,/'Downtower Cable/',279,279,279,0,0,0,0,0,0,0,0,0,0.0,0.0,0.0,0.0,1,1,8365.255,1,1.0,0,1.0,0,1.0,0,1.0
102091,402091,'1',0.0023905903,0.001873892,9.193966E-5,/'Downtower Cable/',279,279,279,0,0,0,0,0,0,0,0,0,0.0,0.0,0.0,0.0,1,1,1357.432,1,1.0,0,1.0,0,1.0,0,1.0
102092,402092,'1',0.0023905903,0.001873892,9.193966E-5,/'Downtower Cable/',279,279,279,0,0,0,0,0,0,0,0,0,0.0,0.0,0.0,0.0,1,1,1346.081,1,1.0,0,1.0,0,1.0,0,1.0
102093,402093,'1',0.0023905903,0.001873892,9.193966E-5,/'Downtower Cable/',279,279,279,0,0,0,0,0,0,0,0,0,0.0,0.0,0.0,0.0,1,1,1355.817,1,1.0,0,1.0,0,1.0,0,1.0
102094,402094,'1',0.0023905903,0.001873892,9.193966E-5,/'Downtower Cable/',279,279,279,0,0,0,0,0,0,0,0,0,0.0,0.0,0.0,0.0,1,1,1384.874,1,1.0,0,1.0,0,1.0,0,1.0
102095,402095,'1',0.0023905903,0.001873892,9.193966E-5,/'Downtower Cable/',279,279,279,0,0,0,0,0,0,0,0,0,0.0,0.0,0.0,0.0,1,1,1127.222,1,1.0,0,1.0,0,1.0,0,1.0
103099,403099,'1',0.0023905903,0.001873892,9.193966E-5,/'Downtower Cable/',279,279,279,0,0,0,0,0,0,0,0,0,0.0,0.0,0.0,0.0,1,1,8215.404,1,1.0,0,1.0,0,1.0,0,1.0
103100,403100,'1',0.0023905903,0.001873892,9.193966E-5,/'Downtower Cable/',279,279,279,0,0,0,0,0,0,0,0,0,0.0,0.0,0.0,0.0,1,1,1292.817,1,1.0,0,1.0,0,1.0,0,1.0
103101,403101,'1',0.0023905903,0.001873892,9.193966E-5,/'Downtower Cable/',279,279,279,0,0,0,0,0,0,0,0,0,0.0,0.0,0.0,0.0,1,1,4730.804,1,1.0,0,1.0,0,1.0,0,1.0
103102,403102,'1',0.0023905903,0.001873892,9.193966E-5,/'Downtower Cable/',279,279,279,0,0,0,0,0,0,0,0,0,0.0,0.0,0.0,0.0,1,1,1258.454,1,1.0,0,1.0,0,1.0,0,1.0
103103,403103,'1',0.0023905903,0.001873892,9.193966E-5,/'Downtower Cable/',279,279,279,0,0,0,0,0,0,0,0,0,0.0,0.0,0.0,0.0,1,1,1276.29,1,1.0,0,1.0,0,1.0,0,1.0
103104,403104,'1',0.0023905903,0.001873892,9.193966E-5,/'Downtower Cable/',279,279,279,0,0,0,0,0,0,0,0,0,0.0,0.0,0.0,0.0,1,1,1317.377,1,1.0,0,1.0,0,1.0,0,1.0
104106,404106,'1',0.0023905903,0.001873892,9.193966E-5,/'Downtower Cable/',279,279,279,0,0,0,0,0,0,0,0,0,0.0,0.0,0.0,0.0,1,1,8335.207,1,1.0,0,1.0,0,1.0,0,1.0
104107,404107,'1',0.0023905903,0.001873892,9.193966E-5,/'Downtower Cable/',279,279,279,0,0,0,0,0,0,0,0,0,0.0,0.0,0.0,0.0,1,1,1224.65,1,1.0,0,1.0,0,1.0,0,1.0
104108,404108,'1',0.0023905903,0.001873892,9.193966E-5,/'Downtower Cable/',279,279,279,0,0,0,0,0,0,0,0,0,0.0,0.0,0.0,0.0,1,1,5150.104,1,1.0,0,1.0,0,1.0,0,1.0
104109,404109,'1',0.0023905903,0.001873892,9.193966E-5,/'Downtower Cable/',279,279,279,0,0,0,0,0,0,0,0,0,0.0,0.0,0.0,0.0,1,1,2051.575,1,1.0,0,1.0,0,1.0,0,1.0
104110,404110,'1',0.0023905903,0.001873892,9.193966E-5,/'Downtower Cable/',279,279,279,0,0,0,0,0,0,0,0,0,0.0,0.0,0.0,0.0,1,1,1072.231,1,1.0,0,1.0,0,1.0,0,1.0
104111,404111,'1',0.0023905903,0.001873892,9.193966E-5,/'Downtower Cable/',279,279,279,0,0,0,0,0,0,0,0,0,0.0,0.0,0.0,0.0,1,1,1067.071,1,1.0,0,1.0,0,1.0,0,1.0
104112,404112,'1',0.0023905903,0.001873892,9.193966E-5,/'Downtower Cable/',279,279,279,0,0,0,0,0,0,0,0,0,0.0,0.0,0.0,0.0,1,1,1088.588,1,1.0,0,1.0,0,1.0,0,1.0
104113,404113,'1',0.0023905903,0.001873892,9.193966E-5,/'Downtower Cable/',279,279,279,0,0,0,0,0,0,0,0,0,0.0,0.0,0.0,0.0,1,1,4032.535,1,1.0,0,1.0,0,1.0,0,1.0
104114,404114,'1',0.0023905903,0.001873892,9.193966E-5,/'Downtower Cable/',279,279,279,0,0,0,0,0,0,0,0,0,0.0,0.0,0.0,0.0,1,1,1011.889,1,1.0,0,1.0,0,1.0,0,1.0
104115,404115,'1',0.0023905903,0.001873892,9.193966E-5,/'Downtower Cable/',279,279,279,0,0,0,0,0,0,0,0,0,0.0,0.0,0.0,0.0,1,1,1044.771,1,1.0,0,1.0,0,1.0,0,1.0
104116,404116,'1',0.0023905903,0.001873892,9.193966E-5,/'Downtower Cable/',279,279,279,0,0,0,0,0,0,0,0,0,0.0,0.0,0.0,0.0,1,1,1083.903,1,1.0,0,1.0,0,1.0,0,1.0
8,9,'1 ',0.0011327788,0.010709868,0.03976382,/'Tie-Line/',1000,1000,1000,0,0,0,0,0,0,0,0,0,0.0,0.0,0.0,0.0,1,1,10.0,1,1.0,0,1.0,0,1.0,0,1.0
0 / END OF BRANCH DATA, BEGIN SYSTEM SWITCHING DEVICE DATA
@! I,J,'CKT',X,RATE1,RATE2,RATE3,RATE4,RATE5,RATE6,RATE7,RATE8,RATE9,RATE10,RATE11,RATE12,STAT,NSTAT,MET,STYPE,'NAME'
0 / END OF SYSTEM SWITCHING DEVICE DATA, BEGIN TRANSFORMER DATA
@! I,J,K,'CKT',CW,CZ,CM,MAG1,MAG2,NMETR,'NAME',STAT,O1,F1,O2,F2,O3,F3,O4,F4,'VECGRP',ZCOD
@! R1-2,X1-2,SBASE1-2,R2-3,X2-3,SBASE2-3,R3-1,X3-1,SBASE3-1,VMSTAR,ANSTAR
@! WINDV1,NOMV1,ANG1,RATE1-1,RATE1-2,RATE1-3,RATE1-4,RATE1-5,RATE1-6,RATE1-7,RATE1-8,RATE1-9,RATE1-10,RATE1-11,RATE1-12,COD1,CONT1,RMA1,RMI1,VMA1,VMI1,NTP1,TAB1,CR1,CX1,CNXA1,NOD1
@! WINDV2,NOMV2,ANG2,RATE2-1,RATE2-2,RATE2-3,RATE2-4,RATE2-5,RATE2-6,RATE2-7,RATE2-8,RATE2-9,RATE2-10,RATE2-11,RATE2-12,COD2,CONT2,RMA2,RMI2,VMA2,VMI2,NTP2,TAB2,CR2,CX2,CNXA2,NOD2
@! WINDV3,NOMV3,ANG3,RATE3-1,RATE3-2,RATE3-3,RATE3-4,RATE3-5,RATE3-6,RATE3-7,RATE3-8,RATE3-9,RATE3-10,RATE3-11,RATE3-12,COD3,CONT3,RMA3,RMI3,VMA3,VMI3,NTP3,TAB3,CR3,CX3,CNXA3,NOD3
401005,201005,0,'1',1,2,1,1.0E-4,0.0,2,'     ',1,1,1,0,1,0,1,0,1,'Dyn5'
0.0062004067,0.09517624,5.15
1,0,0,5.15,5.15,5.15,0,0,0,0,0,0,0,0,0,1,201005,1.1,0.9,1.1,0.9,5,0,0,0
1,0
401006,201006,0,'1',1,2,1,1.0E-4,0.0,2,'     ',1,1,1,0,1,0,1,0,1,'Dyn5'
0.0062004067,0.09517624,5.15
1,0,0,5.15,5.15,5.15,0,0,0,0,0,0,0,0,0,1,201006,1.1,0.9,1.1,0.9,5,0,0,0
1,0
401007,201007,0,'1',1,2,1,1.0E-4,0.0,2,'     ',1,1,1,0,1,0,1,0,1,'Dyn5'
0.0062004067,0.09517624,5.15
1,0,0,5.15,5.15,5.15,0,0,0,0,0,0,0,0,0,1,201007,1.1,0.9,1.1,0.9,5,0,0,0
1,0
401008,201008,0,'1',1,2,1,1.0E-4,0.0,2,'     ',1,1,1,0,1,0,1,0,1,'Dyn5'
0.0062004067,0.09517624,5.15
1,0,0,5.15,5.15,5.15,0,0,0,0,0,0,0,0,0,1,201008,1.1,0.9,1.1,0.9,5,0,0,0
1,0
401009,201009,0,'1',1,2,1,1.0E-4,0.0,2,'     ',1,1,1,0,1,0,1,0,1,'Dyn5'
0.0062004067,0.09517624,5.15
1,0,0,5.15,5.15,5.15,0,0,0,0,0,0,0,0,0,1,201009,1.1,0.9,1.1,0.9,5,0,0,0
1,0
401010,201010,0,'1',1,2,1,1.0E-4,0.0,2,'     ',1,1,1,0,1,0,1,0,1,'Dyn5'
0.0062004067,0.09517624,5.15
1,0,0,5.15,5.15,5.15,0,0,0,0,0,0,0,0,0,1,201010,1.1,0.9,1.1,0.9,5,0,0,0
1,0
402015,202015,0,'1',1,2,1,1.0E-4,0.0,2,'     ',1,1,1,0,1,0,1,0,1,'Dyn5'
0.0062004067,0.09517624,5.15
1,0,0,5.15,5.15,5.15,0,0,0,0,0,0,0,0,0,1,202015,1.1,0.9,1.1,0.9,5,0,0,0
1,0
402016,202016,0,'1',1,2,1,1.0E-4,0.0,2,'     ',1,1,1,0,1,0,1,0,1,'Dyn5'
0.0062004067,0.09517624,5.15
1,0,0,5.15,5.15,5.15,0,0,0,0,0,0,0,0,0,1,202016,1.1,0.9,1.1,0.9,5,0,0,0
1,0
402017,202017,0,'1',1,2,1,1.0E-4,0.0,2,'     ',1,1,1,0,1,0,1,0,1,'Dyn5'
0.0062004067,0.09517624,5.15
1,0,0,5.15,5.15,5.15,0,0,0,0,0,0,0,0,0,1,202017,1.1,0.9,1.1,0.9,5,0,0,0
1,0
402018,202018,0,'1',1,2,1,1.0E-4,0.0,2,'     ',1,1,1,0,1,0,1,0,1,'Dyn5'
0.0062004067,0.09517624,5.15
1,0,0,5.15,5.15,5.15,0,0,0,0,0,0,0,0,0,1,202018,1.1,0.9,1.1,0.9,5,0,0,0
1,0
402019,202019,0,'1',1,2,1,1.0E-4,0.0,2,'     ',1,1,1,0,1,0,1,0,1,'Dyn5'
0.0062004067,0.09517624,5.15
1,0,0,5.15,5.15,5.15,0,0,0,0,0,0,0,0,0,1,202019,1.1,0.9,1.1,0.9,5,0,0,0
1,0
402020,202020,0,'1',1,2,1,1.0E-4,0.0,2,'     ',1,1,1,0,1,0,1,0,1,'Dyn5'
0.0062004067,0.09517624,5.15
1,0,0,5.15,5.15,5.15,0,0,0,0,0,0,0,0,0,1,202020,1.1,0.9,1.1,0.9,5,0,0,0
1,0
403024,203024,0,'1',1,2,1,1.0E-4,0.0,2,'     ',1,1,1,0,1,0,1,0,1,'Dyn5'
0.0062004067,0.09517624,5.15
1,0,0,5.15,5.15,5.15,0,0,0,0,0,0,0,0,0,1,203024,1.1,0.9,1.1,0.9,5,0,0,0
1,0
403025,203025,0,'1',1,2,1,1.0E-4,0.0,2,'     ',1,1,1,0,1,0,1,0,1,'Dyn5'
0.0062004067,0.09517624,5.15
1,0,0,5.15,5.15,5.15,0,0,0,0,0,0,0,0,0,1,203025,1.1,0.9,1.1,0.9,5,0,0,0
1,0
403026,203026,0,'1',1,2,1,1.0E-4,0.0,2,'     ',1,1,1,0,1,0,1,0,1,'Dyn5'
0.0062004067,0.09517624,5.15
1,0,0,5.15,5.15,5.15,0,0,0,0,0,0,0,0,0,1,203026,1.1,0.9,1.1,0.9,5,0,0,0
1,0
403027,203027,0,'1',1,2,1,1.0E-4,0.0,2,'     ',1,1,1,0,1,0,1,0,1,'Dyn5'
0.0062004067,0.09517624,5.15
1,0,0,5.15,5.15,5.15,0,0,0,0,0,0,0,0,0,1,203027,1.1,0.9,1.1,0.9,5,0,0,0
1,0
403028,203028,0,'1',1,2,1,1.0E-4,0.0,2,'     ',1,1,1,0,1,0,1,0,1,'Dyn5'
0.0062004067,0.09517624,5.15
1,0,0,5.15,5.15,5.15,0,0,0,0,0,0,0,0,0,1,203028,1.1,0.9,1.1,0.9,5,0,0,0
1,0
403029,203029,0,'1',1,2,1,1.0E-4,0.0,2,'     ',1,1,1,0,1,0,1,0,1,'Dyn5'
0.0062004067,0.09517624,5.15
1,0,0,5.15,5.15,5.15,0,0,0,0,0,0,0,0,0,1,203029,1.1,0.9,1.1,0.9,5,0,0,0
1,0
404033,204033,0,'1',1,2,1,1.0E-4,0.0,2,'     ',1,1,1,0,1,0,1,0,1,'Dyn5'
0.0062004067,0.09517624,5.15
1,0,0,5.15,5.15,5.15,0,0,0,0,0,0,0,0,0,1,204033,1.1,0.9,1.1,0.9,5,0,0,0
1,0
404034,204034,0,'1',1,2,1,1.0E-4,0.0,2,'     ',1,1,1,0,1,0,1,0,1,'Dyn5'
0.0062004067,0.09517624,5.15
1,0,0,5.15,5.15,5.15,0,0,0,0,0,0,0,0,0,1,204034,1.1,0.9,1.1,0.9,5,0,0,0
1,0
404035,204035,0,'1',1,2,1,1.0E-4,0.0,2,'     ',1,1,1,0,1,0,1,0,1,'Dyn5'
0.0062004067,0.09517624,5.15
1,0,0,5.15,5.15,5.15,0,0,0,0,0,0,0,0,0,1,204035,1.1,0.9,1.1,0.9,5,0,0,0
1,0
404036,204036,0,'1',1,2,1,1.0E-4,0.0,2,'     ',1,1,1,0,1,0,1,0,1,'Dyn5'
0.0062004067,0.09517624,5.15
1,0,0,5.15,5.15,5.15,0,0,0,0,0,0,0,0,0,1,204036,1.1,0.9,1.1,0.9,5,0,0,0
1,0
404037,204037,0,'1',1,2,1,1.0E-4,0.0,2,'     ',1,1,1,0,1,0,1,0,1,'Dyn5'
0.0062004067,0.09517624,5.15
1,0,0,5.15,5.15,5.15,0,0,0,0,0,0,0,0,0,1,204037,1.1,0.9,1.1,0.9,5,0,0,0
1,0
404038,204038,0,'1',1,2,1,1.0E-4,0.0,2,'     ',1,1,1,0,1,0,1,0,1,'Dyn5'
0.0062004067,0.09517624,5.15
1,0,0,5.15,5.15,5.15,0,0,0,0,0,0,0,0,0,1,204038,1.1,0.9,1.1,0.9,5,0,0,0
1,0
401042,201042,0,'1',1,2,1,1.0E-4,0.0,2,'     ',1,1,1,0,1,0,1,0,1,'Dyn5'
0.0062004067,0.09517624,5.15
1,0,0,5.15,5.15,5.15,0,0,0,0,0,0,0,0,0,1,201042,1.1,0.9,1.1,0.9,5,0,0,0
1,0
401043,201043,0,'1',1,2,1,1.0E-4,0.0,2,'     ',1,1,1,0,1,0,1,0,1,'Dyn5'
0.0062004067,0.09517624,5.15
1,0,0,5.15,5.15,5.15,0,0,0,0,0,0,0,0,0,1,201043,1.1,0.9,1.1,0.9,5,0,0,0
1,0
402047,202047,0,'1',1,2,1,1.0E-4,0.0,2,'     ',1,1,1,0,1,0,1,0,1,'Dyn5'
0.0062004067,0.09517624,5.15
1,0,0,5.15,5.15,5.15,0,0,0,0,0,0,0,0,0,1,202047,1.1,0.9,1.1,0.9,5,0,0,0
1,0
402048,202048,0,'1',1,2,1,1.0E-4,0.0,2,'     ',1,1,1,0,1,0,1,0,1,'Dyn5'
0.0062004067,0.09517624,5.15
1,0,0,5.15,5.15,5.15,0,0,0,0,0,0,0,0,0,1,202048,1.1,0.9,1.1,0.9,5,0,0,0
1,0
402049,202049,0,'1',1,2,1,1.0E-4,0.0,2,'     ',1,1,1,0,1,0,1,0,1,'Dyn5'
0.0062004067,0.09517624,5.15
1,0,0,5.15,5.15,5.15,0,0,0,0,0,0,0,0,0,1,202049,1.1,0.9,1.1,0.9,5,0,0,0
1,0
402050,202050,0,'1',1,2,1,1.0E-4,0.0,2,'     ',1,1,1,0,1,0,1,0,1,'Dyn5'
0.0062004067,0.09517624,5.15
1,0,0,5.15,5.15,5.15,0,0,0,0,0,0,0,0,0,1,202050,1.1,0.9,1.1,0.9,5,0,0,0
1,0
402051,202051,0,'1',1,2,1,1.0E-4,0.0,2,'     ',1,1,1,0,1,0,1,0,1,'Dyn5'
0.0062004067,0.09517624,5.15
1,0,0,5.15,5.15,5.15,0,0,0,0,0,0,0,0,0,1,202051,1.1,0.9,1.1,0.9,5,0,0,0
1,0
...